Chemistry 2
  StarDrop          2D                              

 22 24  0  0  0  0  0  0  0  0999 V2000
    2.5956   -2.7031    0.0000 C   0  0  0  0  0  0  0  0  0  0  0  0
    2.5973   -1.5031    0.0000 C   0  0  0  0  0  0  0  0  0  0  0  0
    1.2990   -0.7500    0.0000 N   0  0  0  0  0  0  0  0  0  0  0  0
    1.2990    0.7500    0.0000 C   0  0  0  0  0  0  0  0  0  0  0  0
    0.0000    1.5000    0.0000 C   0  0  0  0  0  0  0  0  0  0  0  0
   -1.2990    0.7500    0.0000 N   0  0  0  0  0  0  0  0  0  0  0  0
   -1.2990   -0.7500    0.0000 C   0  0  0  0  0  0  0  0  0  0  0  0
    0.0000   -1.5000    0.0000 C   0  0  0  0  0  0  0  0  0  0  0  0
   -2.5998    1.4986    0.0000 C   0  0  0  0  0  0  0  0  0  0  0  0
   -3.8983    0.7460    0.0000 C   0  0  0  0  0  0  0  0  0  0  0  0
   -3.8989   -0.7540    0.0000 C   0  0  0  0  0  0  0  0  0  0  0  0
   -5.1982   -1.5035    0.0000 C   0  0  0  0  0  0  0  0  0  0  0  0
   -6.4970   -0.7530    0.0000 C   0  0  0  0  0  0  0  0  0  0  0  0
   -7.5364   -1.3527    0.0000 Cl  0  0  0  0  0  0  0  0  0  0  0  0
   -6.4964    0.7470    0.0000 C   0  0  0  0  0  0  0  0  0  0  0  0
   -5.1971    1.4965    0.0000 C   0  0  0  0  0  0  0  0  0  0  0  0
   -2.6013    2.9994    0.0000 C   0  0  0  0  0  0  0  0  0  0  0  0
   -1.3046    3.7535    0.0000 C   0  0  0  0  0  0  0  0  0  0  0  0
   -1.3092    5.2535    0.0000 C   0  0  0  0  0  0  0  0  0  0  0  0
   -2.6105    5.9995    0.0000 C   0  0  0  0  0  0  0  0  0  0  0  0
   -3.9073    5.2455    0.0000 N   0  0  0  0  0  0  0  0  0  0  0  0
   -3.9027    3.7455    0.0000 C   0  0  0  0  0  0  0  0  0  0  0  0
  1  2  1  0  0  0  0
  2  3  1  0  0  0  0
  3  4  1  0  0  0  0
  4  5  1  0  0  0  0
  5  6  1  0  0  0  0
  6  7  1  0  0  0  0
  7  8  1  0  0  0  0
  8  3  1  0  0  0  0
  6  9  1  0  0  0  0
  9 10  1  0  0  0  0
 10 11  2  0  0  0  0
 11 12  1  0  0  0  0
 12 13  2  0  0  0  0
 13 14  1  0  0  0  0
 13 15  1  0  0  0  0
 15 16  2  0  0  0  0
 16 10  1  0  0  0  0
  9 17  1  0  0  0  0
 17 18  2  0  0  0  0
 18 19  1  0  0  0  0
 19 20  2  0  0  0  0
 20 21  1  0  0  0  0
 21 22  2  0  0  0  0
 22 17  1  0  0  0  0
M  END
>  <Other ID>
EPL-BS0167

>  <Source>
Epichem

>  <% growth M.myc at 100 uM>
56

>  <% growth M.myc at 25 uM>
97.32

>  <M. Myc IC50>


>  <M. Myc IC90>


>  <MIC50>


$$$$
Chemistry 8
  StarDrop          2D                              

 32 35  0  0  0  0  0  0  0  0999 V2000
    2.5956   -2.7031    0.0000 C   0  0  0  0  0  0  0  0  0  0  0  0
    2.5973   -1.5031    0.0000 C   0  0  0  0  0  0  0  0  0  0  0  0
    3.6375   -0.9049    0.0000 C   0  0  0  0  0  0  0  0  0  0  0  0
    1.2990   -0.7500    0.0000 C   0  0  0  0  0  0  0  0  0  0  0  0
    1.2990    0.7500    0.0000 C   0  0  0  0  0  0  0  0  0  0  0  0
    0.0000    1.5000    0.0000 C   0  0  0  0  0  0  0  0  0  0  0  0
   -1.2990    0.7500    0.0000 C   0  0  0  0  0  0  0  0  0  0  0  0
   -1.2990   -0.7500    0.0000 C   0  0  0  0  0  0  0  0  0  0  0  0
    0.0000   -1.5000    0.0000 C   0  0  0  0  0  0  0  0  0  0  0  0
   -2.5988    1.5004    0.0000 S   0  0  0  0  0  0  0  0  0  0  0  0
   -3.6378    0.9001    0.0000 O   0  0  0  0  0  0  0  0  0  0  0  0
   -2.5986    0.3004    0.0000 O   0  0  0  0  0  0  0  0  0  0  0  0
   -2.5998    3.0012    0.0000 N   0  0  0  0  0  0  0  0  0  0  0  0
   -3.8993    3.7504    0.0000 C   0  0  0  0  0  0  0  0  0  0  0  0
   -3.9002    5.2504    0.0000 C   0  0  0  0  0  0  0  0  0  0  0  0
   -2.6017    6.0012    0.0000 N   0  0  0  0  0  0  0  0  0  0  0  0
   -1.3022    5.2521    0.0000 C   0  0  0  0  0  0  0  0  0  0  0  0
   -1.3012    3.7521    0.0000 C   0  0  0  0  0  0  0  0  0  0  0  0
   -2.6006    7.5020    0.0000 C   0  0  0  0  0  0  0  0  0  0  0  0
   -1.3001    8.2511    0.0000 C   0  0  0  0  0  0  0  0  0  0  0  0
   -0.0002    7.5024    0.0000 C   0  0  0  0  0  0  0  0  0  0  0  0
    1.2981    8.2537    0.0000 C   0  0  0  0  0  0  0  0  0  0  0  0
    1.2966    9.7537    0.0000 C   0  0  0  0  0  0  0  0  0  0  0  0
    2.3352   10.3548    0.0000 Cl  0  0  0  0  0  0  0  0  0  0  0  0
   -0.0032   10.5024    0.0000 C   0  0  0  0  0  0  0  0  0  0  0  0
   -1.3015    9.7511    0.0000 C   0  0  0  0  0  0  0  0  0  0  0  0
   -3.9001    8.2529    0.0000 C   0  0  0  0  0  0  0  0  0  0  0  0
   -5.2010    7.5061    0.0000 C   0  0  0  0  0  0  0  0  0  0  0  0
   -6.4982    8.2593    0.0000 C   0  0  0  0  0  0  0  0  0  0  0  0
   -6.4945    9.7593    0.0000 C   0  0  0  0  0  0  0  0  0  0  0  0
   -5.1937   10.5061    0.0000 N   0  0  0  0  0  0  0  0  0  0  0  0
   -3.8965    9.7530    0.0000 C   0  0  0  0  0  0  0  0  0  0  0  0
  1  2  1  0  0  0  0
  2  3  1  0  0  0  0
  2  4  1  0  0  0  0
  4  5  2  0  0  0  0
  5  6  1  0  0  0  0
  6  7  2  0  0  0  0
  7  8  1  0  0  0  0
  8  9  2  0  0  0  0
  9  4  1  0  0  0  0
  7 10  1  0  0  0  0
 10 11  2  0  0  0  0
 10 12  2  0  0  0  0
 10 13  1  0  0  0  0
 13 14  1  0  0  0  0
 14 15  1  0  0  0  0
 15 16  1  0  0  0  0
 16 17  1  0  0  0  0
 17 18  1  0  0  0  0
 18 13  1  0  0  0  0
 16 19  1  0  0  0  0
 19 20  1  0  0  0  0
 20 21  2  0  0  0  0
 21 22  1  0  0  0  0
 22 23  2  0  0  0  0
 23 24  1  0  0  0  0
 23 25  1  0  0  0  0
 25 26  2  0  0  0  0
 26 20  1  0  0  0  0
 19 27  1  0  0  0  0
 27 28  2  0  0  0  0
 28 29  1  0  0  0  0
 29 30  2  0  0  0  0
 30 31  1  0  0  0  0
 31 32  2  0  0  0  0
 32 27  1  0  0  0  0
M  END
>  <Other ID>
EPL-BS0400

>  <Source>
Epichem

>  <% growth M.myc at 100 uM>
85.32

>  <% growth M.myc at 25 uM>
92.9

>  <M. Myc IC50>


>  <M. Myc IC90>


>  <MIC50>


$$$$
Chemistry 9
  StarDrop          2D                              

 32 35  0  0  0  0  0  0  0  0999 V2000
    2.5956   -2.7031    0.0000 C   0  0  0  0  0  0  0  0  0  0  0  0
    2.5973   -1.5031    0.0000 C   0  0  0  0  0  0  0  0  0  0  0  0
    3.6375   -0.9049    0.0000 C   0  0  0  0  0  0  0  0  0  0  0  0
    1.2990   -0.7500    0.0000 C   0  0  0  0  0  0  0  0  0  0  0  0
    1.2990    0.7500    0.0000 C   0  0  0  0  0  0  0  0  0  0  0  0
    0.0000    1.5000    0.0000 C   0  0  0  0  0  0  0  0  0  0  0  0
   -1.2990    0.7500    0.0000 C   0  0  0  0  0  0  0  0  0  0  0  0
   -1.2990   -0.7500    0.0000 C   0  0  0  0  0  0  0  0  0  0  0  0
    0.0000   -1.5000    0.0000 C   0  0  0  0  0  0  0  0  0  0  0  0
   -2.5988    1.5004    0.0000 S   0  0  0  0  0  0  0  0  0  0  0  0
   -3.6378    0.9001    0.0000 O   0  0  0  0  0  0  0  0  0  0  0  0
   -2.5986    0.3004    0.0000 O   0  0  0  0  0  0  0  0  0  0  0  0
   -2.5998    3.0012    0.0000 N   0  0  0  0  0  0  0  0  0  0  0  0
   -3.8993    3.7504    0.0000 C   0  0  0  0  0  0  0  0  0  0  0  0
   -3.9002    5.2504    0.0000 C   0  0  0  0  0  0  0  0  0  0  0  0
   -2.6017    6.0012    0.0000 N   0  0  0  0  0  0  0  0  0  0  0  0
   -1.3022    5.2521    0.0000 C   0  0  0  0  0  0  0  0  0  0  0  0
   -1.3012    3.7521    0.0000 C   0  0  0  0  0  0  0  0  0  0  0  0
   -2.6006    7.5020    0.0000 C   0  0  0  0  0  0  0  0  0  0  0  0
   -1.3001    8.2511    0.0000 C   0  0  0  0  0  0  0  0  0  0  0  0
   -0.0002    7.5024    0.0000 C   0  0  0  0  0  0  0  0  0  0  0  0
    1.2981    8.2537    0.0000 C   0  0  0  0  0  0  0  0  0  0  0  0
    1.2966    9.7537    0.0000 C   0  0  0  0  0  0  0  0  0  0  0  0
    2.3352   10.3548    0.0000 Cl  0  0  0  0  0  0  0  0  0  0  0  0
   -0.0032   10.5024    0.0000 C   0  0  0  0  0  0  0  0  0  0  0  0
   -1.3015    9.7511    0.0000 C   0  0  0  0  0  0  0  0  0  0  0  0
   -3.9001    8.2529    0.0000 C   0  0  0  0  0  0  0  0  0  0  0  0
   -5.2010    7.5061    0.0000 C   0  0  0  0  0  0  0  0  0  0  0  0
   -6.4982    8.2593    0.0000 C   0  0  0  0  0  0  0  0  0  0  0  0
   -6.4945    9.7593    0.0000 C   0  0  0  0  0  0  0  0  0  0  0  0
   -5.1937   10.5061    0.0000 N   0  0  0  0  0  0  0  0  0  0  0  0
   -3.8965    9.7530    0.0000 C   0  0  0  0  0  0  0  0  0  0  0  0
  1  2  1  0  0  0  0
  2  3  1  0  0  0  0
  2  4  1  0  0  0  0
  4  5  2  0  0  0  0
  5  6  1  0  0  0  0
  6  7  2  0  0  0  0
  7  8  1  0  0  0  0
  8  9  2  0  0  0  0
  9  4  1  0  0  0  0
  7 10  1  0  0  0  0
 10 11  2  0  0  0  0
 10 12  2  0  0  0  0
 10 13  1  0  0  0  0
 13 14  1  0  0  0  0
 14 15  1  0  0  0  0
 15 16  1  0  0  0  0
 16 17  1  0  0  0  0
 17 18  1  0  0  0  0
 18 13  1  0  0  0  0
 16 19  1  0  0  0  0
 19 20  1  0  0  0  0
 20 21  2  0  0  0  0
 21 22  1  0  0  0  0
 22 23  2  0  0  0  0
 23 24  1  0  0  0  0
 23 25  1  0  0  0  0
 25 26  2  0  0  0  0
 26 20  1  0  0  0  0
 19 27  1  0  0  0  0
 27 28  2  0  0  0  0
 28 29  1  0  0  0  0
 29 30  2  0  0  0  0
 30 31  1  0  0  0  0
 31 32  2  0  0  0  0
 32 27  1  0  0  0  0
M  END
>  <Other ID>
EPL-BS0407

>  <Source>
Epichem

>  <% growth M.myc at 100 uM>
55.69

>  <% growth M.myc at 25 uM>
68.81

>  <M. Myc IC50>


>  <M. Myc IC90>


>  <MIC50>


$$$$
Chemistry 13
  StarDrop          2D                              

 26 28  0  0  0  0  0  0  0  0999 V2000
    3.8916   -4.9570    0.0000 C   0  0  0  0  0  0  0  0  0  0  0  0
    3.8933   -3.7570    0.0000 C   0  0  0  0  0  0  0  0  0  0  0  0
    2.5951   -3.0039    0.0000 O   0  0  0  0  0  0  0  0  0  0  0  0
    2.5973   -1.5031    0.0000 C   0  0  0  0  0  0  0  0  0  0  0  0
    3.6375   -0.9049    0.0000 O   0  0  0  0  0  0  0  0  0  0  0  0
    1.2990   -0.7500    0.0000 N   0  0  0  0  0  0  0  0  0  0  0  0
    1.2990    0.7500    0.0000 C   0  0  0  0  0  0  0  0  0  0  0  0
    0.0000    1.5000    0.0000 C   0  0  0  0  0  0  0  0  0  0  0  0
   -1.2990    0.7500    0.0000 N   0  0  0  0  0  0  0  0  0  0  0  0
   -1.2990   -0.7500    0.0000 C   0  0  0  0  0  0  0  0  0  0  0  0
    0.0000   -1.5000    0.0000 C   0  0  0  0  0  0  0  0  0  0  0  0
   -2.5998    1.4986    0.0000 C   0  0  0  0  0  0  0  0  0  0  0  0
   -3.8983    0.7460    0.0000 C   0  0  0  0  0  0  0  0  0  0  0  0
   -3.8989   -0.7540    0.0000 C   0  0  0  0  0  0  0  0  0  0  0  0
   -5.1982   -1.5035    0.0000 C   0  0  0  0  0  0  0  0  0  0  0  0
   -6.4970   -0.7530    0.0000 C   0  0  0  0  0  0  0  0  0  0  0  0
   -6.4964    0.7470    0.0000 N   0  0  0  0  0  0  0  0  0  0  0  0
   -5.1971    1.4965    0.0000 C   0  0  0  0  0  0  0  0  0  0  0  0
   -2.6013    2.9994    0.0000 C   0  0  0  0  0  0  0  0  0  0  0  0
   -3.9027    3.7455    0.0000 C   0  0  0  0  0  0  0  0  0  0  0  0
   -3.9073    5.2455    0.0000 C   0  0  0  0  0  0  0  0  0  0  0  0
   -2.6105    5.9995    0.0000 C   0  0  0  0  0  0  0  0  0  0  0  0
   -2.6142    7.1995    0.0000 Cl  0  0  0  0  0  0  0  0  0  0  0  0
   -1.3092    5.2535    0.0000 C   0  0  0  0  0  0  0  0  0  0  0  0
   -1.3046    3.7535    0.0000 C   0  0  0  0  0  0  0  0  0  0  0  0
   -0.2635    3.1567    0.0000 F   0  0  0  0  0  0  0  0  0  0  0  0
  1  2  1  0  0  0  0
  2  3  1  0  0  0  0
  3  4  1  0  0  0  0
  4  5  2  0  0  0  0
  4  6  1  0  0  0  0
  6  7  1  0  0  0  0
  7  8  1  0  0  0  0
  8  9  1  0  0  0  0
  9 10  1  0  0  0  0
 10 11  1  0  0  0  0
 11  6  1  0  0  0  0
  9 12  1  0  0  0  0
 12 13  1  0  0  0  0
 13 14  2  0  0  0  0
 14 15  1  0  0  0  0
 15 16  2  0  0  0  0
 16 17  1  0  0  0  0
 17 18  2  0  0  0  0
 18 13  1  0  0  0  0
 12 19  1  0  0  0  0
 19 20  2  0  0  0  0
 20 21  1  0  0  0  0
 21 22  2  0  0  0  0
 22 23  1  0  0  0  0
 22 24  1  0  0  0  0
 24 25  2  0  0  0  0
 25 19  1  0  0  0  0
 25 26  1  0  0  0  0
M  END
>  <Other ID>
EPL-BS0495

>  <Source>
Epichem

>  <% growth M.myc at 100 uM>
0.9241

>  <% growth M.myc at 25 uM>
1.016

>  <M. Myc IC50>
0.28

>  <M. Myc IC90>
0.46

>  <MIC50>
4

$$$$
Chemistry 21
  StarDrop          2D                              

 29 32  0  0  0  0  0  0  0  0999 V2000
    4.9460   -3.4943    0.0000 C   0  0  0  0  0  0  0  0  0  0  0  0
    3.8056   -3.8679    0.0000 C   0  0  0  0  0  0  0  0  0  0  0  0
    3.3372   -5.2929    0.0000 N   0  0  0  0  0  0  0  0  0  0  0  0
    1.8372   -5.2877    0.0000 C   0  0  0  0  0  0  0  0  0  0  0  0
    1.3786   -3.8595    0.0000 S   0  0  0  0  0  0  0  0  0  0  0  0
    2.5951   -3.0039    0.0000 C   0  0  0  0  0  0  0  0  0  0  0  0
    2.5973   -1.5031    0.0000 C   0  0  0  0  0  0  0  0  0  0  0  0
    3.6375   -0.9049    0.0000 O   0  0  0  0  0  0  0  0  0  0  0  0
    1.2990   -0.7500    0.0000 N   0  0  0  0  0  0  0  0  0  0  0  0
    1.2990    0.7500    0.0000 C   0  0  0  0  0  0  0  0  0  0  0  0
    0.0000    1.5000    0.0000 C   0  0  0  0  0  0  0  0  0  0  0  0
   -1.2990    0.7500    0.0000 N   0  0  0  0  0  0  0  0  0  0  0  0
   -1.2990   -0.7500    0.0000 C   0  0  0  0  0  0  0  0  0  0  0  0
    0.0000   -1.5000    0.0000 C   0  0  0  0  0  0  0  0  0  0  0  0
   -2.5998    1.4986    0.0000 C   0  0  0  0  0  0  0  0  0  0  0  0
   -3.8983    0.7460    0.0000 C   0  0  0  0  0  0  0  0  0  0  0  0
   -3.8989   -0.7540    0.0000 C   0  0  0  0  0  0  0  0  0  0  0  0
   -5.1982   -1.5035    0.0000 C   0  0  0  0  0  0  0  0  0  0  0  0
   -6.4970   -0.7530    0.0000 C   0  0  0  0  0  0  0  0  0  0  0  0
   -6.4964    0.7470    0.0000 C   0  0  0  0  0  0  0  0  0  0  0  0
   -5.1971    1.4965    0.0000 C   0  0  0  0  0  0  0  0  0  0  0  0
   -7.7970   -1.5030    0.0000 C   0  0  0  0  0  0  0  0  0  0  0  0
   -8.8364   -2.1026    0.0000 N   0  0  0  0  0  0  0  0  0  0  0  0
   -2.6013    2.9994    0.0000 C   0  0  0  0  0  0  0  0  0  0  0  0
   -1.3046    3.7535    0.0000 C   0  0  0  0  0  0  0  0  0  0  0  0
   -1.3092    5.2535    0.0000 C   0  0  0  0  0  0  0  0  0  0  0  0
   -2.6105    5.9995    0.0000 C   0  0  0  0  0  0  0  0  0  0  0  0
   -3.9073    5.2455    0.0000 N   0  0  0  0  0  0  0  0  0  0  0  0
   -3.9027    3.7455    0.0000 C   0  0  0  0  0  0  0  0  0  0  0  0
  1  2  1  0  0  0  0
  2  3  1  0  0  0  0
  3  4  2  0  0  0  0
  4  5  1  0  0  0  0
  5  6  1  0  0  0  0
  6  2  2  0  0  0  0
  6  7  1  0  0  0  0
  7  8  2  0  0  0  0
  7  9  1  0  0  0  0
  9 10  1  0  0  0  0
 10 11  1  0  0  0  0
 11 12  1  0  0  0  0
 12 13  1  0  0  0  0
 13 14  1  0  0  0  0
 14  9  1  0  0  0  0
 12 15  1  0  0  0  0
 15 16  1  0  0  0  0
 16 17  2  0  0  0  0
 17 18  1  0  0  0  0
 18 19  2  0  0  0  0
 19 20  1  0  0  0  0
 20 21  2  0  0  0  0
 21 16  1  0  0  0  0
 19 22  1  0  0  0  0
 22 23  3  0  0  0  0
 15 24  1  0  0  0  0
 24 25  2  0  0  0  0
 25 26  1  0  0  0  0
 26 27  2  0  0  0  0
 27 28  1  0  0  0  0
 28 29  2  0  0  0  0
 29 24  1  0  0  0  0
M  END
>  <Other ID>
EPL-BS0690

>  <Source>
Epichem

>  <% growth M.myc at 100 uM>
86

>  <% growth M.myc at 25 uM>
92.06

>  <M. Myc IC50>


>  <M. Myc IC90>


>  <MIC50>


$$$$
Chemistry 41
  StarDrop          2D                              

 28 30  0  0  0  0  0  0  0  0999 V2000
    2.3383   -1.3500    0.0000 F   0  0  0  0  0  0  0  0  0  0  0  0
    1.2990   -0.7500    0.0000 C   0  0  0  0  0  0  0  0  0  0  0  0
    1.2990    0.7500    0.0000 C   0  0  0  0  0  0  0  0  0  0  0  0
    0.0000    1.5000    0.0000 C   0  0  0  0  0  0  0  0  0  0  0  0
    0.0000    2.7000    0.0000 Cl  0  0  0  0  0  0  0  0  0  0  0  0
   -1.2990    0.7500    0.0000 C   0  0  0  0  0  0  0  0  0  0  0  0
   -1.2990   -0.7500    0.0000 C   0  0  0  0  0  0  0  0  0  0  0  0
    0.0000   -1.5000    0.0000 C   0  0  0  0  0  0  0  0  0  0  0  0
   -0.0031   -3.0008    0.0000 C   0  0  0  0  0  0  0  0  0  0  0  0
    1.2953   -3.7535    0.0000 N   0  0  0  0  0  0  0  0  0  0  0  0
    1.2948   -5.2535    0.0000 C   0  0  0  0  0  0  0  0  0  0  0  0
    2.5936   -6.0040    0.0000 C   0  0  0  0  0  0  0  0  0  0  0  0
    3.8929   -5.2545    0.0000 N   0  0  0  0  0  0  0  0  0  0  0  0
    5.1939   -6.0027    0.0000 C   0  0  0  0  0  0  0  0  0  0  0  0
    6.4929   -5.2510    0.0000 O   0  0  0  0  0  0  0  0  0  0  0  0
    7.7939   -5.9992    0.0000 C   0  0  0  0  0  0  0  0  0  0  0  0
    8.8325   -5.3981    0.0000 C   0  0  0  0  0  0  0  0  0  0  0  0
    7.7956   -7.1992    0.0000 C   0  0  0  0  0  0  0  0  0  0  0  0
    8.8339   -6.5979    0.0000 C   0  0  0  0  0  0  0  0  0  0  0  0
    5.1956   -7.2027    0.0000 O   0  0  0  0  0  0  0  0  0  0  0  0
    3.8935   -3.7545    0.0000 C   0  0  0  0  0  0  0  0  0  0  0  0
    2.5947   -3.0040    0.0000 C   0  0  0  0  0  0  0  0  0  0  0  0
   -1.3039   -3.7494    0.0000 C   0  0  0  0  0  0  0  0  0  0  0  0
   -1.3092   -5.2494    0.0000 C   0  0  0  0  0  0  0  0  0  0  0  0
   -2.6108   -5.9949    0.0000 C   0  0  0  0  0  0  0  0  0  0  0  0
   -3.9072   -5.2404    0.0000 C   0  0  0  0  0  0  0  0  0  0  0  0
   -3.9020   -3.7404    0.0000 N   0  0  0  0  0  0  0  0  0  0  0  0
   -2.6004   -2.9949    0.0000 C   0  0  0  0  0  0  0  0  0  0  0  0
  1  2  1  0  0  0  0
  2  3  2  0  0  0  0
  3  4  1  0  0  0  0
  4  5  1  0  0  0  0
  4  6  2  0  0  0  0
  6  7  1  0  0  0  0
  7  8  2  0  0  0  0
  8  2  1  0  0  0  0
  8  9  1  0  0  0  0
  9 10  1  0  0  0  0
 10 11  1  0  0  0  0
 11 12  1  0  0  0  0
 12 13  1  0  0  0  0
 13 14  1  0  0  0  0
 14 15  1  0  0  0  0
 15 16  1  0  0  0  0
 16 17  1  0  0  0  0
 16 18  1  0  0  0  0
 16 19  1  0  0  0  0
 14 20  2  0  0  0  0
 13 21  1  0  0  0  0
 21 22  1  0  0  0  0
 22 10  1  0  0  0  0
  9 23  1  0  0  0  0
 23 24  2  0  0  0  0
 24 25  1  0  0  0  0
 25 26  2  0  0  0  0
 26 27  1  0  0  0  0
 27 28  2  0  0  0  0
 28 23  1  0  0  0  0
M  END
>  <Other ID>
HPD12_1

>  <Source>
Sydney

>  <% growth M.myc at 100 uM>
-0.41

>  <% growth M.myc at 25 uM>


>  <M. Myc IC50>
1.55

>  <M. Myc IC90>
3.48

>  <MIC50>
2

$$$$
Chemistry 42
  StarDrop          2D                              

 26 28  0  0  0  0  0  0  0  0999 V2000
    2.3383   -1.3500    0.0000 F   0  0  0  0  0  0  0  0  0  0  0  0
    1.2990   -0.7500    0.0000 C   0  0  0  0  0  0  0  0  0  0  0  0
    1.2990    0.7500    0.0000 C   0  0  0  0  0  0  0  0  0  0  0  0
    0.0000    1.5000    0.0000 C   0  0  0  0  0  0  0  0  0  0  0  0
    0.0000    2.7000    0.0000 Cl  0  0  0  0  0  0  0  0  0  0  0  0
   -1.2990    0.7500    0.0000 C   0  0  0  0  0  0  0  0  0  0  0  0
   -1.2990   -0.7500    0.0000 C   0  0  0  0  0  0  0  0  0  0  0  0
    0.0000   -1.5000    0.0000 C   0  0  0  0  0  0  0  0  0  0  0  0
   -0.0031   -3.0008    0.0000 C   0  0  0  0  0  0  0  0  0  0  0  0
    1.2953   -3.7535    0.0000 N   0  0  0  0  0  0  0  0  0  0  0  0
    1.2948   -5.2535    0.0000 C   0  0  0  0  0  0  0  0  0  0  0  0
    2.5936   -6.0040    0.0000 C   0  0  0  0  0  0  0  0  0  0  0  0
    3.8929   -5.2545    0.0000 N   0  0  0  0  0  0  0  0  0  0  0  0
    5.1939   -6.0027    0.0000 C   0  0  0  0  0  0  0  0  0  0  0  0
    6.4929   -5.2510    0.0000 O   0  0  0  0  0  0  0  0  0  0  0  0
    7.7939   -5.9992    0.0000 C   0  0  0  0  0  0  0  0  0  0  0  0
    8.8325   -5.3981    0.0000 C   0  0  0  0  0  0  0  0  0  0  0  0
    5.1956   -7.2027    0.0000 O   0  0  0  0  0  0  0  0  0  0  0  0
    3.8935   -3.7545    0.0000 C   0  0  0  0  0  0  0  0  0  0  0  0
    2.5947   -3.0040    0.0000 C   0  0  0  0  0  0  0  0  0  0  0  0
   -1.3039   -3.7494    0.0000 C   0  0  0  0  0  0  0  0  0  0  0  0
   -1.3092   -5.2494    0.0000 C   0  0  0  0  0  0  0  0  0  0  0  0
   -2.6108   -5.9949    0.0000 C   0  0  0  0  0  0  0  0  0  0  0  0
   -3.9072   -5.2404    0.0000 C   0  0  0  0  0  0  0  0  0  0  0  0
   -3.9020   -3.7404    0.0000 N   0  0  0  0  0  0  0  0  0  0  0  0
   -2.6004   -2.9949    0.0000 C   0  0  0  0  0  0  0  0  0  0  0  0
  1  2  1  0  0  0  0
  2  3  2  0  0  0  0
  3  4  1  0  0  0  0
  4  5  1  0  0  0  0
  4  6  2  0  0  0  0
  6  7  1  0  0  0  0
  7  8  2  0  0  0  0
  8  2  1  0  0  0  0
  8  9  1  0  0  0  0
  9 10  1  0  0  0  0
 10 11  1  0  0  0  0
 11 12  1  0  0  0  0
 12 13  1  0  0  0  0
 13 14  1  0  0  0  0
 14 15  1  0  0  0  0
 15 16  1  0  0  0  0
 16 17  1  0  0  0  0
 14 18  2  0  0  0  0
 13 19  1  0  0  0  0
 19 20  1  0  0  0  0
 20 10  1  0  0  0  0
  9 21  1  0  0  0  0
 21 22  2  0  0  0  0
 22 23  1  0  0  0  0
 23 24  2  0  0  0  0
 24 25  1  0  0  0  0
 25 26  2  0  0  0  0
 26 21  1  0  0  0  0
M  END
>  <Other ID>
HPD14_1, EPL-BS0495

>  <Source>
Sydney

>  <% growth M.myc at 100 uM>
-0.32

>  <% growth M.myc at 25 uM>


>  <M. Myc IC50>
0.03

>  <M. Myc IC90>
0.75

>  <MIC50>
0.5

$$$$
Chemistry 47
  StarDrop          2D                              

 28 30  0  0  0  0  0  0  0  0999 V2000
    2.3383   -1.3500    0.0000 F   0  0  0  0  0  0  0  0  0  0  0  0
    1.2990   -0.7500    0.0000 C   0  0  0  0  0  0  0  0  0  0  0  0
    1.2990    0.7500    0.0000 C   0  0  0  0  0  0  0  0  0  0  0  0
    0.0000    1.5000    0.0000 C   0  0  0  0  0  0  0  0  0  0  0  0
    0.0000    2.7000    0.0000 Cl  0  0  0  0  0  0  0  0  0  0  0  0
   -1.2990    0.7500    0.0000 C   0  0  0  0  0  0  0  0  0  0  0  0
   -1.2990   -0.7500    0.0000 C   0  0  0  0  0  0  0  0  0  0  0  0
    0.0000   -1.5000    0.0000 C   0  0  0  0  0  0  0  0  0  0  0  0
   -0.0031   -3.0008    0.0000 C   0  0  0  0  0  0  0  0  0  0  0  0
    1.2953   -3.7535    0.0000 N   0  0  0  0  0  0  0  0  0  0  0  0
    1.2948   -5.2535    0.0000 C   0  0  0  0  0  0  0  0  0  0  0  0
    2.5936   -6.0040    0.0000 C   0  0  0  0  0  0  0  0  0  0  0  0
    3.8929   -5.2545    0.0000 N   0  0  0  0  0  0  0  0  0  0  0  0
    5.1909   -6.0081    0.0000 C   0  0  0  0  0  0  0  0  0  0  0  0
    5.1882   -7.5089    0.0000 O   0  0  0  0  0  0  0  0  0  0  0  0
    6.4861   -8.2625    0.0000 C   0  0  0  0  0  0  0  0  0  0  0  0
    6.4839   -9.4625    0.0000 C   0  0  0  0  0  0  0  0  0  0  0  0
    6.2314   -5.4103    0.0000 O   0  0  0  0  0  0  0  0  0  0  0  0
    3.8935   -3.7545    0.0000 C   0  0  0  0  0  0  0  0  0  0  0  0
    4.9180   -4.3793    0.0000 C   0  0  0  0  0  0  0  0  0  0  0  0
    3.8657   -2.5548    0.0000 C   0  0  0  0  0  0  0  0  0  0  0  0
    2.5947   -3.0040    0.0000 C   0  0  0  0  0  0  0  0  0  0  0  0
   -1.3039   -3.7494    0.0000 C   0  0  0  0  0  0  0  0  0  0  0  0
   -1.3092   -5.2494    0.0000 C   0  0  0  0  0  0  0  0  0  0  0  0
   -2.6108   -5.9949    0.0000 C   0  0  0  0  0  0  0  0  0  0  0  0
   -3.9072   -5.2404    0.0000 C   0  0  0  0  0  0  0  0  0  0  0  0
   -3.9020   -3.7404    0.0000 N   0  0  0  0  0  0  0  0  0  0  0  0
   -2.6004   -2.9949    0.0000 C   0  0  0  0  0  0  0  0  0  0  0  0
  1  2  1  0  0  0  0
  2  3  2  0  0  0  0
  3  4  1  0  0  0  0
  4  5  1  0  0  0  0
  4  6  2  0  0  0  0
  6  7  1  0  0  0  0
  7  8  2  0  0  0  0
  8  2  1  0  0  0  0
  8  9  1  0  0  0  0
  9 10  1  0  0  0  0
 10 11  1  0  0  0  0
 11 12  1  0  0  0  0
 12 13  1  0  0  0  0
 13 14  1  0  0  0  0
 14 15  1  0  0  0  0
 15 16  1  0  0  0  0
 16 17  1  0  0  0  0
 14 18  2  0  0  0  0
 13 19  1  0  0  0  0
 19 20  1  0  0  0  0
 19 21  1  0  0  0  0
 19 22  1  0  0  0  0
 22 10  1  0  0  0  0
  9 23  1  0  0  0  0
 23 24  2  0  0  0  0
 24 25  1  0  0  0  0
 25 26  2  0  0  0  0
 26 27  1  0  0  0  0
 27 28  2  0  0  0  0
 28 23  1  0  0  0  0
M  END
>  <Other ID>
HPD27_2

>  <Source>
Sydney

>  <% growth M.myc at 100 uM>


>  <% growth M.myc at 25 uM>


>  <M. Myc IC50>


>  <M. Myc IC90>


>  <MIC50>


$$$$
Chemistry 48
  StarDrop          2D                              

 27 29  0  0  0  0  0  0  0  0999 V2000
    2.3383   -1.3500    0.0000 F   0  0  0  0  0  0  0  0  0  0  0  0
    1.2990   -0.7500    0.0000 C   0  0  0  0  0  0  0  0  0  0  0  0
    1.2990    0.7500    0.0000 C   0  0  0  0  0  0  0  0  0  0  0  0
    0.0000    1.5000    0.0000 C   0  0  0  0  0  0  0  0  0  0  0  0
    0.0000    2.7000    0.0000 Cl  0  0  0  0  0  0  0  0  0  0  0  0
   -1.2990    0.7500    0.0000 C   0  0  0  0  0  0  0  0  0  0  0  0
   -1.2990   -0.7500    0.0000 C   0  0  0  0  0  0  0  0  0  0  0  0
    0.0000   -1.5000    0.0000 C   0  0  0  0  0  0  0  0  0  0  0  0
   -0.0031   -3.0008    0.0000 C   0  0  0  0  0  0  0  0  0  0  0  0
    1.2953   -3.7535    0.0000 N   0  0  0  0  0  0  0  0  0  0  0  0
    2.5947   -3.0040    0.0000 C   0  0  0  0  0  0  0  0  0  0  0  0
    3.8935   -3.7545    0.0000 C   0  0  0  0  0  0  0  0  0  0  0  0
    3.8929   -5.2545    0.0000 N   0  0  0  0  0  0  0  0  0  0  0  0
    5.1908   -6.0081    0.0000 C   0  0  0  0  0  0  0  0  0  0  0  0
    5.1881   -7.5089    0.0000 O   0  0  0  0  0  0  0  0  0  0  0  0
    6.4861   -8.2625    0.0000 C   0  0  0  0  0  0  0  0  0  0  0  0
    6.4839   -9.4625    0.0000 C   0  0  0  0  0  0  0  0  0  0  0  0
    6.2313   -5.4103    0.0000 O   0  0  0  0  0  0  0  0  0  0  0  0
    2.5936   -6.0040    0.0000 C   0  0  0  0  0  0  0  0  0  0  0  0
    1.2948   -5.2535    0.0000 C   0  0  0  0  0  0  0  0  0  0  0  0
    0.2554   -5.8532    0.0000 C   0  0  0  0  0  0  0  0  0  0  0  0
   -1.3039   -3.7494    0.0000 C   0  0  0  0  0  0  0  0  0  0  0  0
   -1.3092   -5.2494    0.0000 C   0  0  0  0  0  0  0  0  0  0  0  0
   -2.6108   -5.9949    0.0000 C   0  0  0  0  0  0  0  0  0  0  0  0
   -3.9072   -5.2404    0.0000 C   0  0  0  0  0  0  0  0  0  0  0  0
   -3.9020   -3.7404    0.0000 N   0  0  0  0  0  0  0  0  0  0  0  0
   -2.6004   -2.9949    0.0000 C   0  0  0  0  0  0  0  0  0  0  0  0
  1  2  1  0  0  0  0
  2  3  2  0  0  0  0
  3  4  1  0  0  0  0
  4  5  1  0  0  0  0
  4  6  2  0  0  0  0
  6  7  1  0  0  0  0
  7  8  2  0  0  0  0
  8  2  1  0  0  0  0
  8  9  1  0  0  0  0
  9 10  1  0  0  0  0
 10 11  1  0  0  0  0
 11 12  1  0  0  0  0
 12 13  1  0  0  0  0
 13 14  1  0  0  0  0
 14 15  1  0  0  0  0
 15 16  1  0  0  0  0
 16 17  1  0  0  0  0
 14 18  2  0  0  0  0
 13 19  1  0  0  0  0
 19 20  1  0  0  0  0
 20 10  1  0  0  0  0
 20 21  1  0  0  0  0
  9 22  1  0  0  0  0
 22 23  2  0  0  0  0
 23 24  1  0  0  0  0
 24 25  2  0  0  0  0
 25 26  1  0  0  0  0
 26 27  2  0  0  0  0
 27 22  1  0  0  0  0
M  END
>  <Other ID>
HPD28_1F2

>  <Source>
Sydney

>  <% growth M.myc at 100 uM>


>  <% growth M.myc at 25 uM>


>  <M. Myc IC50>


>  <M. Myc IC90>


>  <MIC50>


$$$$
Chemistry 49
  StarDrop          2D                              

 27 29  0  0  0  0  0  0  0  0999 V2000
    2.3383   -1.3500    0.0000 F   0  0  0  0  0  0  0  0  0  0  0  0
    1.2990   -0.7500    0.0000 C   0  0  0  0  0  0  0  0  0  0  0  0
    1.2990    0.7500    0.0000 C   0  0  0  0  0  0  0  0  0  0  0  0
    0.0000    1.5000    0.0000 C   0  0  0  0  0  0  0  0  0  0  0  0
    0.0000    2.7000    0.0000 Cl  0  0  0  0  0  0  0  0  0  0  0  0
   -1.2990    0.7500    0.0000 C   0  0  0  0  0  0  0  0  0  0  0  0
   -1.2990   -0.7500    0.0000 C   0  0  0  0  0  0  0  0  0  0  0  0
    0.0000   -1.5000    0.0000 C   0  0  0  0  0  0  0  0  0  0  0  0
   -0.0031   -3.0008    0.0000 C   0  0  0  0  0  0  0  0  0  0  0  0
    1.2953   -3.7535    0.0000 N   0  0  0  0  0  0  0  0  0  0  0  0
    2.5947   -3.0040    0.0000 C   0  0  0  0  0  0  0  0  0  0  0  0
    3.8935   -3.7545    0.0000 C   0  0  0  0  0  0  0  0  0  0  0  0
    3.8929   -5.2545    0.0000 N   0  0  0  0  0  0  0  0  0  0  0  0
    5.1908   -6.0081    0.0000 C   0  0  0  0  0  0  0  0  0  0  0  0
    5.1881   -7.5089    0.0000 O   0  0  0  0  0  0  0  0  0  0  0  0
    6.4861   -8.2625    0.0000 C   0  0  0  0  0  0  0  0  0  0  0  0
    6.4839   -9.4625    0.0000 C   0  0  0  0  0  0  0  0  0  0  0  0
    6.2313   -5.4103    0.0000 O   0  0  0  0  0  0  0  0  0  0  0  0
    2.5936   -6.0040    0.0000 C   0  0  0  0  0  0  0  0  0  0  0  0
    1.2948   -5.2535    0.0000 C   0  0  0  0  0  0  0  0  0  0  0  0
    0.2554   -5.8532    0.0000 C   0  0  0  0  0  0  0  0  0  0  0  0
   -1.3039   -3.7494    0.0000 C   0  0  0  0  0  0  0  0  0  0  0  0
   -1.3092   -5.2494    0.0000 C   0  0  0  0  0  0  0  0  0  0  0  0
   -2.6108   -5.9949    0.0000 C   0  0  0  0  0  0  0  0  0  0  0  0
   -3.9072   -5.2404    0.0000 C   0  0  0  0  0  0  0  0  0  0  0  0
   -3.9020   -3.7404    0.0000 N   0  0  0  0  0  0  0  0  0  0  0  0
   -2.6004   -2.9949    0.0000 C   0  0  0  0  0  0  0  0  0  0  0  0
  1  2  1  0  0  0  0
  2  3  2  0  0  0  0
  3  4  1  0  0  0  0
  4  5  1  0  0  0  0
  4  6  2  0  0  0  0
  6  7  1  0  0  0  0
  7  8  2  0  0  0  0
  8  2  1  0  0  0  0
  8  9  1  0  0  0  0
  9 10  1  0  0  0  0
 10 11  1  0  0  0  0
 11 12  1  0  0  0  0
 12 13  1  0  0  0  0
 13 14  1  0  0  0  0
 14 15  1  0  0  0  0
 15 16  1  0  0  0  0
 16 17  1  0  0  0  0
 14 18  2  0  0  0  0
 13 19  1  0  0  0  0
 19 20  1  0  0  0  0
 20 10  1  0  0  0  0
 20 21  1  0  0  0  0
  9 22  1  0  0  0  0
 22 23  2  0  0  0  0
 23 24  1  0  0  0  0
 24 25  2  0  0  0  0
 25 26  1  0  0  0  0
 26 27  2  0  0  0  0
 27 22  1  0  0  0  0
M  END
>  <Other ID>
HPD28_1F3

>  <Source>
Sydney

>  <% growth M.myc at 100 uM>


>  <% growth M.myc at 25 uM>


>  <M. Myc IC50>


>  <M. Myc IC90>


>  <MIC50>


$$$$
Chemistry 50
  StarDrop          2D                              

 31 34  0  0  0  0  0  0  0  0999 V2000
    2.3383   -1.3500    0.0000 F   0  0  0  0  0  0  0  0  0  0  0  0
    1.2990   -0.7500    0.0000 C   0  0  0  0  0  0  0  0  0  0  0  0
    1.2990    0.7500    0.0000 C   0  0  0  0  0  0  0  0  0  0  0  0
    0.0000    1.5000    0.0000 C   0  0  0  0  0  0  0  0  0  0  0  0
    0.0000    2.7000    0.0000 Cl  0  0  0  0  0  0  0  0  0  0  0  0
   -1.2990    0.7500    0.0000 C   0  0  0  0  0  0  0  0  0  0  0  0
   -1.2990   -0.7500    0.0000 C   0  0  0  0  0  0  0  0  0  0  0  0
    0.0000   -1.5000    0.0000 C   0  0  0  0  0  0  0  0  0  0  0  0
   -0.0031   -3.0008    0.0000 C   0  0  0  0  0  0  0  0  0  0  0  0
    1.2953   -3.7535    0.0000 N   0  0  0  0  0  0  0  0  0  0  0  0
    1.2948   -5.2535    0.0000 C   0  0  0  0  0  0  0  0  0  0  0  0
    2.5936   -6.0040    0.0000 C   0  0  0  0  0  0  0  0  0  0  0  0
    3.8929   -5.2545    0.0000 N   0  0  0  0  0  0  0  0  0  0  0  0
    5.1939   -6.0027    0.0000 C   0  0  0  0  0  0  0  0  0  0  0  0
    6.4929   -5.2510    0.0000 O   0  0  0  0  0  0  0  0  0  0  0  0
    7.7939   -5.9992    0.0000 C   0  0  0  0  0  0  0  0  0  0  0  0
    9.0929   -5.2474    0.0000 C   0  0  0  0  0  0  0  0  0  0  0  0
   10.3943   -5.9933    0.0000 C   0  0  0  0  0  0  0  0  0  0  0  0
   11.6910   -5.2393    0.0000 C   0  0  0  0  0  0  0  0  0  0  0  0
   11.6864   -3.7393    0.0000 C   0  0  0  0  0  0  0  0  0  0  0  0
   10.3850   -2.9933    0.0000 C   0  0  0  0  0  0  0  0  0  0  0  0
    9.0883   -3.7473    0.0000 C   0  0  0  0  0  0  0  0  0  0  0  0
    5.1956   -7.2027    0.0000 O   0  0  0  0  0  0  0  0  0  0  0  0
    3.8935   -3.7545    0.0000 C   0  0  0  0  0  0  0  0  0  0  0  0
    2.5947   -3.0040    0.0000 C   0  0  0  0  0  0  0  0  0  0  0  0
   -1.3039   -3.7494    0.0000 C   0  0  0  0  0  0  0  0  0  0  0  0
   -1.3092   -5.2494    0.0000 C   0  0  0  0  0  0  0  0  0  0  0  0
   -2.6108   -5.9949    0.0000 C   0  0  0  0  0  0  0  0  0  0  0  0
   -3.9072   -5.2404    0.0000 C   0  0  0  0  0  0  0  0  0  0  0  0
   -3.9020   -3.7404    0.0000 N   0  0  0  0  0  0  0  0  0  0  0  0
   -2.6004   -2.9949    0.0000 C   0  0  0  0  0  0  0  0  0  0  0  0
  1  2  1  0  0  0  0
  2  3  2  0  0  0  0
  3  4  1  0  0  0  0
  4  5  1  0  0  0  0
  4  6  2  0  0  0  0
  6  7  1  0  0  0  0
  7  8  2  0  0  0  0
  8  2  1  0  0  0  0
  8  9  1  0  0  0  0
  9 10  1  0  0  0  0
 10 11  1  0  0  0  0
 11 12  1  0  0  0  0
 12 13  1  0  0  0  0
 13 14  1  0  0  0  0
 14 15  1  0  0  0  0
 15 16  1  0  0  0  0
 16 17  1  0  0  0  0
 17 18  2  0  0  0  0
 18 19  1  0  0  0  0
 19 20  2  0  0  0  0
 20 21  1  0  0  0  0
 21 22  2  0  0  0  0
 22 17  1  0  0  0  0
 14 23  2  0  0  0  0
 13 24  1  0  0  0  0
 24 25  1  0  0  0  0
 25 10  1  0  0  0  0
  9 26  1  0  0  0  0
 26 27  2  0  0  0  0
 27 28  1  0  0  0  0
 28 29  2  0  0  0  0
 29 30  1  0  0  0  0
 30 31  2  0  0  0  0
 31 26  1  0  0  0  0
M  END
>  <Other ID>
HPD29_1

>  <Source>
Sydney

>  <% growth M.myc at 100 uM>


>  <% growth M.myc at 25 uM>


>  <M. Myc IC50>


>  <M. Myc IC90>


>  <MIC50>


$$$$
Chemistry 51
  StarDrop          2D                              

 25 27  0  0  0  0  0  0  0  0999 V2000
    2.3383   -1.3500    0.0000 F   0  0  0  0  0  0  0  0  0  0  0  0
    1.2990   -0.7500    0.0000 C   0  0  0  0  0  0  0  0  0  0  0  0
    1.2990    0.7500    0.0000 C   0  0  0  0  0  0  0  0  0  0  0  0
    0.0000    1.5000    0.0000 C   0  0  0  0  0  0  0  0  0  0  0  0
    0.0000    2.7000    0.0000 Cl  0  0  0  0  0  0  0  0  0  0  0  0
   -1.2990    0.7500    0.0000 C   0  0  0  0  0  0  0  0  0  0  0  0
   -1.2990   -0.7500    0.0000 C   0  0  0  0  0  0  0  0  0  0  0  0
    0.0000   -1.5000    0.0000 C   0  0  0  0  0  0  0  0  0  0  0  0
   -0.0031   -3.0008    0.0000 C   0  0  0  0  0  0  0  0  0  0  0  0
    1.2953   -3.7535    0.0000 N   0  0  0  0  0  0  0  0  0  0  0  0
    1.2948   -5.2535    0.0000 C   0  0  0  0  0  0  0  0  0  0  0  0
    2.5936   -6.0040    0.0000 C   0  0  0  0  0  0  0  0  0  0  0  0
    3.8929   -5.2545    0.0000 N   0  0  0  0  0  0  0  0  0  0  0  0
    5.1939   -6.0027    0.0000 C   0  0  0  0  0  0  0  0  0  0  0  0
    6.4929   -5.2510    0.0000 O   0  0  0  0  0  0  0  0  0  0  0  0
    7.5331   -5.8492    0.0000 C   0  0  0  0  0  0  0  0  0  0  0  0
    5.1956   -7.2027    0.0000 O   0  0  0  0  0  0  0  0  0  0  0  0
    3.8935   -3.7545    0.0000 C   0  0  0  0  0  0  0  0  0  0  0  0
    2.5947   -3.0040    0.0000 C   0  0  0  0  0  0  0  0  0  0  0  0
   -1.3039   -3.7494    0.0000 C   0  0  0  0  0  0  0  0  0  0  0  0
   -1.3092   -5.2494    0.0000 C   0  0  0  0  0  0  0  0  0  0  0  0
   -2.6108   -5.9949    0.0000 C   0  0  0  0  0  0  0  0  0  0  0  0
   -3.9072   -5.2404    0.0000 C   0  0  0  0  0  0  0  0  0  0  0  0
   -3.9020   -3.7404    0.0000 N   0  0  0  0  0  0  0  0  0  0  0  0
   -2.6004   -2.9949    0.0000 C   0  0  0  0  0  0  0  0  0  0  0  0
  1  2  1  0  0  0  0
  2  3  2  0  0  0  0
  3  4  1  0  0  0  0
  4  5  1  0  0  0  0
  4  6  2  0  0  0  0
  6  7  1  0  0  0  0
  7  8  2  0  0  0  0
  8  2  1  0  0  0  0
  8  9  1  0  0  0  0
  9 10  1  0  0  0  0
 10 11  1  0  0  0  0
 11 12  1  0  0  0  0
 12 13  1  0  0  0  0
 13 14  1  0  0  0  0
 14 15  1  0  0  0  0
 15 16  1  0  0  0  0
 14 17  2  0  0  0  0
 13 18  1  0  0  0  0
 18 19  1  0  0  0  0
 19 10  1  0  0  0  0
  9 20  1  0  0  0  0
 20 21  2  0  0  0  0
 21 22  1  0  0  0  0
 22 23  2  0  0  0  0
 23 24  1  0  0  0  0
 24 25  2  0  0  0  0
 25 20  1  0  0  0  0
M  END
>  <Other ID>
HPD30_1

>  <Source>
Sydney

>  <% growth M.myc at 100 uM>


>  <% growth M.myc at 25 uM>


>  <M. Myc IC50>


>  <M. Myc IC90>


>  <MIC50>


$$$$
Chemistry 52
  StarDrop          2D                              

 27 30  0  0  0  0  0  0  0  0999 V2000
    2.3383   -1.3500    0.0000 F   0  0  0  0  0  0  0  0  0  0  0  0
    1.2990   -0.7500    0.0000 C   0  0  0  0  0  0  0  0  0  0  0  0
    1.2990    0.7500    0.0000 C   0  0  0  0  0  0  0  0  0  0  0  0
    0.0000    1.5000    0.0000 C   0  0  0  0  0  0  0  0  0  0  0  0
    0.0000    2.7000    0.0000 Cl  0  0  0  0  0  0  0  0  0  0  0  0
   -1.2990    0.7500    0.0000 C   0  0  0  0  0  0  0  0  0  0  0  0
   -1.2990   -0.7500    0.0000 C   0  0  0  0  0  0  0  0  0  0  0  0
    0.0000   -1.5000    0.0000 C   0  0  0  0  0  0  0  0  0  0  0  0
   -0.0031   -3.0008    0.0000 C   0  0  0  0  0  0  0  0  0  0  0  0
    1.2953   -3.7535    0.0000 N   0  0  0  0  0  0  0  0  0  0  0  0
    1.2948   -5.2535    0.0000 C   0  0  0  0  0  0  0  0  0  0  0  0
    2.5936   -6.0040    0.0000 C   0  0  0  0  0  0  0  0  0  0  0  0
    3.8929   -5.2545    0.0000 N   0  0  0  0  0  0  0  0  0  0  0  0
    3.8935   -3.7545    0.0000 C   0  0  0  0  0  0  0  0  0  0  0  0
    2.5947   -3.0040    0.0000 C   0  0  0  0  0  0  0  0  0  0  0  0
    5.1923   -6.0054    0.0000 C   0  0  0  0  0  0  0  0  0  0  0  0
    5.1942   -7.5054    0.0000 C   0  0  0  0  0  0  0  0  0  0  0  0
    6.4942   -8.2539    0.0000 C   0  0  0  0  0  0  0  0  0  0  0  0
    7.7923   -7.5023    0.0000 C   0  0  0  0  0  0  0  0  0  0  0  0
    7.7905   -6.0023    0.0000 C   0  0  0  0  0  0  0  0  0  0  0  0
    6.4906   -5.2539    0.0000 C   0  0  0  0  0  0  0  0  0  0  0  0
   -1.3039   -3.7494    0.0000 C   0  0  0  0  0  0  0  0  0  0  0  0
   -1.3092   -5.2494    0.0000 C   0  0  0  0  0  0  0  0  0  0  0  0
   -2.6108   -5.9949    0.0000 C   0  0  0  0  0  0  0  0  0  0  0  0
   -3.9072   -5.2404    0.0000 C   0  0  0  0  0  0  0  0  0  0  0  0
   -3.9020   -3.7404    0.0000 N   0  0  0  0  0  0  0  0  0  0  0  0
   -2.6004   -2.9949    0.0000 C   0  0  0  0  0  0  0  0  0  0  0  0
  1  2  1  0  0  0  0
  2  3  2  0  0  0  0
  3  4  1  0  0  0  0
  4  5  1  0  0  0  0
  4  6  2  0  0  0  0
  6  7  1  0  0  0  0
  7  8  2  0  0  0  0
  8  2  1  0  0  0  0
  8  9  1  0  0  0  0
  9 10  1  0  0  0  0
 10 11  1  0  0  0  0
 11 12  1  0  0  0  0
 12 13  1  0  0  0  0
 13 14  1  0  0  0  0
 14 15  1  0  0  0  0
 15 10  1  0  0  0  0
 13 16  1  0  0  0  0
 16 17  2  0  0  0  0
 17 18  1  0  0  0  0
 18 19  2  0  0  0  0
 19 20  1  0  0  0  0
 20 21  2  0  0  0  0
 21 16  1  0  0  0  0
  9 22  1  0  0  0  0
 22 23  2  0  0  0  0
 23 24  1  0  0  0  0
 24 25  2  0  0  0  0
 25 26  1  0  0  0  0
 26 27  2  0  0  0  0
 27 22  1  0  0  0  0
M  END
>  <Other ID>
EPL-BS0237

>  <Source>
Epichem

>  <% growth M.myc at 100 uM>
10.21

>  <% growth M.myc at 25 uM>
9.687

>  <M. Myc IC50>
1

>  <M. Myc IC90>
7

>  <MIC50>


$$$$
Chemistry 53
  StarDrop          2D                              

 26 28  0  0  0  0  0  0  0  0999 V2000
    3.6331   -3.6060    0.0000 C   0  0  0  0  0  0  0  0  0  0  0  0
    2.5951   -3.0039    0.0000 C   0  0  0  0  0  0  0  0  0  0  0  0
    1.5548   -3.6021    0.0000 C   0  0  0  0  0  0  0  0  0  0  0  0
    2.5973   -1.5031    0.0000 C   0  0  0  0  0  0  0  0  0  0  0  0
    3.6375   -0.9049    0.0000 O   0  0  0  0  0  0  0  0  0  0  0  0
    1.2990   -0.7500    0.0000 N   0  0  0  0  0  0  0  0  0  0  0  0
    1.2990    0.7500    0.0000 C   0  0  0  0  0  0  0  0  0  0  0  0
    0.0000    1.5000    0.0000 C   0  0  0  0  0  0  0  0  0  0  0  0
   -1.2990    0.7500    0.0000 N   0  0  0  0  0  0  0  0  0  0  0  0
   -1.2990   -0.7500    0.0000 C   0  0  0  0  0  0  0  0  0  0  0  0
    0.0000   -1.5000    0.0000 C   0  0  0  0  0  0  0  0  0  0  0  0
   -2.5998    1.4986    0.0000 C   0  0  0  0  0  0  0  0  0  0  0  0
   -3.8983    0.7460    0.0000 C   0  0  0  0  0  0  0  0  0  0  0  0
   -3.8989   -0.7540    0.0000 C   0  0  0  0  0  0  0  0  0  0  0  0
   -5.1982   -1.5035    0.0000 C   0  0  0  0  0  0  0  0  0  0  0  0
   -6.4970   -0.7530    0.0000 C   0  0  0  0  0  0  0  0  0  0  0  0
   -6.4964    0.7470    0.0000 N   0  0  0  0  0  0  0  0  0  0  0  0
   -5.1971    1.4965    0.0000 C   0  0  0  0  0  0  0  0  0  0  0  0
   -2.6013    2.9994    0.0000 C   0  0  0  0  0  0  0  0  0  0  0  0
   -3.9027    3.7455    0.0000 C   0  0  0  0  0  0  0  0  0  0  0  0
   -3.9073    5.2455    0.0000 C   0  0  0  0  0  0  0  0  0  0  0  0
   -2.6105    5.9995    0.0000 C   0  0  0  0  0  0  0  0  0  0  0  0
   -2.6142    7.1995    0.0000 Cl  0  0  0  0  0  0  0  0  0  0  0  0
   -1.3092    5.2535    0.0000 C   0  0  0  0  0  0  0  0  0  0  0  0
   -1.3046    3.7535    0.0000 C   0  0  0  0  0  0  0  0  0  0  0  0
   -0.2635    3.1567    0.0000 F   0  0  0  0  0  0  0  0  0  0  0  0
  1  2  1  0  0  0  0
  2  3  1  0  0  0  0
  2  4  1  0  0  0  0
  4  5  2  0  0  0  0
  4  6  1  0  0  0  0
  6  7  1  0  0  0  0
  7  8  1  0  0  0  0
  8  9  1  0  0  0  0
  9 10  1  0  0  0  0
 10 11  1  0  0  0  0
 11  6  1  0  0  0  0
  9 12  1  0  0  0  0
 12 13  1  0  0  0  0
 13 14  2  0  0  0  0
 14 15  1  0  0  0  0
 15 16  2  0  0  0  0
 16 17  1  0  0  0  0
 17 18  2  0  0  0  0
 18 13  1  0  0  0  0
 12 19  1  0  0  0  0
 19 20  2  0  0  0  0
 20 21  1  0  0  0  0
 21 22  2  0  0  0  0
 22 23  1  0  0  0  0
 22 24  1  0  0  0  0
 24 25  2  0  0  0  0
 25 19  1  0  0  0  0
 25 26  1  0  0  0  0
M  END
>  <Other ID>
EPL-BS0248

>  <Source>
Epichem

>  <% growth M.myc at 100 uM>
10.68

>  <% growth M.myc at 25 uM>
53.43

>  <M. Myc IC50>


>  <M. Myc IC90>


>  <MIC50>


$$$$
Chemistry 54
  StarDrop          2D                              

 29 32  0  0  0  0  0  0  0  0999 V2000
    2.3383   -1.3500    0.0000 F   0  0  0  0  0  0  0  0  0  0  0  0
    1.2990   -0.7500    0.0000 C   0  0  0  0  0  0  0  0  0  0  0  0
    1.2990    0.7500    0.0000 C   0  0  0  0  0  0  0  0  0  0  0  0
    0.0000    1.5000    0.0000 C   0  0  0  0  0  0  0  0  0  0  0  0
    0.0000    2.7000    0.0000 Cl  0  0  0  0  0  0  0  0  0  0  0  0
   -1.2990    0.7500    0.0000 C   0  0  0  0  0  0  0  0  0  0  0  0
   -1.2990   -0.7500    0.0000 C   0  0  0  0  0  0  0  0  0  0  0  0
    0.0000   -1.5000    0.0000 C   0  0  0  0  0  0  0  0  0  0  0  0
   -0.0031   -3.0008    0.0000 C   0  0  0  0  0  0  0  0  0  0  0  0
    1.2953   -3.7535    0.0000 N   0  0  0  0  0  0  0  0  0  0  0  0
    1.2948   -5.2535    0.0000 C   0  0  0  0  0  0  0  0  0  0  0  0
    2.5936   -6.0040    0.0000 C   0  0  0  0  0  0  0  0  0  0  0  0
    3.8929   -5.2545    0.0000 N   0  0  0  0  0  0  0  0  0  0  0  0
    3.8935   -3.7545    0.0000 C   0  0  0  0  0  0  0  0  0  0  0  0
    2.5947   -3.0040    0.0000 C   0  0  0  0  0  0  0  0  0  0  0  0
    5.1939   -6.0027    0.0000 C   0  0  0  0  0  0  0  0  0  0  0  0
    5.1956   -7.2027    0.0000 O   0  0  0  0  0  0  0  0  0  0  0  0
    6.4929   -5.2510    0.0000 C   0  0  0  0  0  0  0  0  0  0  0  0
    7.7943   -5.9969    0.0000 C   0  0  0  0  0  0  0  0  0  0  0  0
    9.0910   -5.2429    0.0000 C   0  0  0  0  0  0  0  0  0  0  0  0
    9.0864   -3.7429    0.0000 C   0  0  0  0  0  0  0  0  0  0  0  0
    7.7851   -2.9969    0.0000 C   0  0  0  0  0  0  0  0  0  0  0  0
    6.4883   -3.7509    0.0000 C   0  0  0  0  0  0  0  0  0  0  0  0
   -1.3039   -3.7494    0.0000 C   0  0  0  0  0  0  0  0  0  0  0  0
   -1.3092   -5.2494    0.0000 C   0  0  0  0  0  0  0  0  0  0  0  0
   -2.6108   -5.9949    0.0000 C   0  0  0  0  0  0  0  0  0  0  0  0
   -3.9072   -5.2404    0.0000 C   0  0  0  0  0  0  0  0  0  0  0  0
   -3.9020   -3.7404    0.0000 N   0  0  0  0  0  0  0  0  0  0  0  0
   -2.6004   -2.9949    0.0000 C   0  0  0  0  0  0  0  0  0  0  0  0
  1  2  1  0  0  0  0
  2  3  2  0  0  0  0
  3  4  1  0  0  0  0
  4  5  1  0  0  0  0
  4  6  2  0  0  0  0
  6  7  1  0  0  0  0
  7  8  2  0  0  0  0
  8  2  1  0  0  0  0
  8  9  1  0  0  0  0
  9 10  1  0  0  0  0
 10 11  1  0  0  0  0
 11 12  1  0  0  0  0
 12 13  1  0  0  0  0
 13 14  1  0  0  0  0
 14 15  1  0  0  0  0
 15 10  1  0  0  0  0
 13 16  1  0  0  0  0
 16 17  2  0  0  0  0
 16 18  1  0  0  0  0
 18 19  2  0  0  0  0
 19 20  1  0  0  0  0
 20 21  2  0  0  0  0
 21 22  1  0  0  0  0
 22 23  2  0  0  0  0
 23 18  1  0  0  0  0
  9 24  1  0  0  0  0
 24 25  2  0  0  0  0
 25 26  1  0  0  0  0
 26 27  2  0  0  0  0
 27 28  1  0  0  0  0
 28 29  2  0  0  0  0
 29 24  1  0  0  0  0
M  END
>  <Other ID>
EPL-BS 250

>  <Source>
Epichem

>  <% growth M.myc at 100 uM>
2.109

>  <% growth M.myc at 25 uM>
30.8

>  <M. Myc IC50>


>  <M. Myc IC90>


>  <MIC50>


$$$$
Chemistry 55
  StarDrop          2D                              

 30 33  0  0  0  0  0  0  0  0999 V2000
    2.3383   -1.3500    0.0000 F   0  0  0  0  0  0  0  0  0  0  0  0
    1.2990   -0.7500    0.0000 C   0  0  0  0  0  0  0  0  0  0  0  0
    1.2990    0.7500    0.0000 C   0  0  0  0  0  0  0  0  0  0  0  0
    0.0000    1.5000    0.0000 C   0  0  0  0  0  0  0  0  0  0  0  0
    0.0000    2.7000    0.0000 Cl  0  0  0  0  0  0  0  0  0  0  0  0
   -1.2990    0.7500    0.0000 C   0  0  0  0  0  0  0  0  0  0  0  0
   -1.2990   -0.7500    0.0000 C   0  0  0  0  0  0  0  0  0  0  0  0
    0.0000   -1.5000    0.0000 C   0  0  0  0  0  0  0  0  0  0  0  0
   -0.0031   -3.0008    0.0000 C   0  0  0  0  0  0  0  0  0  0  0  0
    1.2953   -3.7535    0.0000 N   0  0  0  0  0  0  0  0  0  0  0  0
    1.2948   -5.2535    0.0000 C   0  0  0  0  0  0  0  0  0  0  0  0
    2.5936   -6.0040    0.0000 C   0  0  0  0  0  0  0  0  0  0  0  0
    3.8929   -5.2545    0.0000 N   0  0  0  0  0  0  0  0  0  0  0  0
    3.8935   -3.7545    0.0000 C   0  0  0  0  0  0  0  0  0  0  0  0
    2.5947   -3.0040    0.0000 C   0  0  0  0  0  0  0  0  0  0  0  0
    5.1924   -6.0054    0.0000 S   0  0  0  0  0  0  0  0  0  0  0  0
    6.2317   -5.4055    0.0000 O   0  0  0  0  0  0  0  0  0  0  0  0
    5.1927   -4.8054    0.0000 O   0  0  0  0  0  0  0  0  0  0  0  0
    5.1928   -7.5062    0.0000 C   0  0  0  0  0  0  0  0  0  0  0  0
    3.8939   -8.2566    0.0000 C   0  0  0  0  0  0  0  0  0  0  0  0
    3.8943   -9.7566    0.0000 C   0  0  0  0  0  0  0  0  0  0  0  0
    5.1936  -10.5062    0.0000 C   0  0  0  0  0  0  0  0  0  0  0  0
    6.4924   -9.7559    0.0000 C   0  0  0  0  0  0  0  0  0  0  0  0
    6.4920   -8.2559    0.0000 C   0  0  0  0  0  0  0  0  0  0  0  0
   -1.3039   -3.7494    0.0000 C   0  0  0  0  0  0  0  0  0  0  0  0
   -1.3092   -5.2494    0.0000 C   0  0  0  0  0  0  0  0  0  0  0  0
   -2.6108   -5.9949    0.0000 C   0  0  0  0  0  0  0  0  0  0  0  0
   -3.9072   -5.2404    0.0000 C   0  0  0  0  0  0  0  0  0  0  0  0
   -3.9020   -3.7404    0.0000 N   0  0  0  0  0  0  0  0  0  0  0  0
   -2.6004   -2.9949    0.0000 C   0  0  0  0  0  0  0  0  0  0  0  0
  1  2  1  0  0  0  0
  2  3  2  0  0  0  0
  3  4  1  0  0  0  0
  4  5  1  0  0  0  0
  4  6  2  0  0  0  0
  6  7  1  0  0  0  0
  7  8  2  0  0  0  0
  8  2  1  0  0  0  0
  8  9  1  0  0  0  0
  9 10  1  0  0  0  0
 10 11  1  0  0  0  0
 11 12  1  0  0  0  0
 12 13  1  0  0  0  0
 13 14  1  0  0  0  0
 14 15  1  0  0  0  0
 15 10  1  0  0  0  0
 13 16  1  0  0  0  0
 16 17  2  0  0  0  0
 16 18  2  0  0  0  0
 16 19  1  0  0  0  0
 19 20  2  0  0  0  0
 20 21  1  0  0  0  0
 21 22  2  0  0  0  0
 22 23  1  0  0  0  0
 23 24  2  0  0  0  0
 24 19  1  0  0  0  0
  9 25  1  0  0  0  0
 25 26  2  0  0  0  0
 26 27  1  0  0  0  0
 27 28  2  0  0  0  0
 28 29  1  0  0  0  0
 29 30  2  0  0  0  0
 30 25  1  0  0  0  0
M  END
>  <Other ID>
EPL-BS 256

>  <Source>
Epichem

>  <% growth M.myc at 100 uM>
52.46

>  <% growth M.myc at 25 uM>
51.91

>  <M. Myc IC50>


>  <M. Myc IC90>


>  <MIC50>


$$$$
Chemistry 56
  StarDrop          2D                              

 25 27  0  0  0  0  0  0  0  0999 V2000
    2.5984   -2.7004    0.0000 C   0  0  0  0  0  0  0  0  0  0  0  0
    2.5988   -1.5004    0.0000 S   0  0  0  0  0  0  0  0  0  0  0  0
    3.6384   -0.9011    0.0000 O   0  0  0  0  0  0  0  0  0  0  0  0
    3.6377   -2.1009    0.0000 O   0  0  0  0  0  0  0  0  0  0  0  0
    1.2990   -0.7500    0.0000 N   0  0  0  0  0  0  0  0  0  0  0  0
    1.2990    0.7500    0.0000 C   0  0  0  0  0  0  0  0  0  0  0  0
    0.0000    1.5000    0.0000 C   0  0  0  0  0  0  0  0  0  0  0  0
   -1.2990    0.7500    0.0000 N   0  0  0  0  0  0  0  0  0  0  0  0
   -1.2990   -0.7500    0.0000 C   0  0  0  0  0  0  0  0  0  0  0  0
    0.0000   -1.5000    0.0000 C   0  0  0  0  0  0  0  0  0  0  0  0
   -2.5998    1.4986    0.0000 C   0  0  0  0  0  0  0  0  0  0  0  0
   -3.8983    0.7460    0.0000 C   0  0  0  0  0  0  0  0  0  0  0  0
   -3.8989   -0.7540    0.0000 C   0  0  0  0  0  0  0  0  0  0  0  0
   -5.1982   -1.5035    0.0000 C   0  0  0  0  0  0  0  0  0  0  0  0
   -6.4970   -0.7530    0.0000 C   0  0  0  0  0  0  0  0  0  0  0  0
   -6.4964    0.7470    0.0000 N   0  0  0  0  0  0  0  0  0  0  0  0
   -5.1971    1.4965    0.0000 C   0  0  0  0  0  0  0  0  0  0  0  0
   -2.6013    2.9994    0.0000 C   0  0  0  0  0  0  0  0  0  0  0  0
   -3.9027    3.7455    0.0000 C   0  0  0  0  0  0  0  0  0  0  0  0
   -3.9073    5.2455    0.0000 C   0  0  0  0  0  0  0  0  0  0  0  0
   -2.6105    5.9995    0.0000 C   0  0  0  0  0  0  0  0  0  0  0  0
   -2.6142    7.1995    0.0000 Cl  0  0  0  0  0  0  0  0  0  0  0  0
   -1.3092    5.2535    0.0000 C   0  0  0  0  0  0  0  0  0  0  0  0
   -1.3046    3.7535    0.0000 C   0  0  0  0  0  0  0  0  0  0  0  0
   -0.2635    3.1567    0.0000 F   0  0  0  0  0  0  0  0  0  0  0  0
  1  2  1  0  0  0  0
  2  3  2  0  0  0  0
  2  4  2  0  0  0  0
  2  5  1  0  0  0  0
  5  6  1  0  0  0  0
  6  7  1  0  0  0  0
  7  8  1  0  0  0  0
  8  9  1  0  0  0  0
  9 10  1  0  0  0  0
 10  5  1  0  0  0  0
  8 11  1  0  0  0  0
 11 12  1  0  0  0  0
 12 13  2  0  0  0  0
 13 14  1  0  0  0  0
 14 15  2  0  0  0  0
 15 16  1  0  0  0  0
 16 17  2  0  0  0  0
 17 12  1  0  0  0  0
 11 18  1  0  0  0  0
 18 19  2  0  0  0  0
 19 20  1  0  0  0  0
 20 21  2  0  0  0  0
 21 22  1  0  0  0  0
 21 23  1  0  0  0  0
 23 24  2  0  0  0  0
 24 18  1  0  0  0  0
 24 25  1  0  0  0  0
M  END
>  <Other ID>
EPL-BS0322

>  <Source>
Epichem

>  <% growth M.myc at 100 uM>
83.55

>  <% growth M.myc at 25 uM>
78.01

>  <M. Myc IC50>


>  <M. Myc IC90>


>  <MIC50>


$$$$
Chemistry 57
  StarDrop          2D                              

 30 33  0  0  0  0  0  0  0  0999 V2000
    2.3383   -1.3500    0.0000 F   0  0  0  0  0  0  0  0  0  0  0  0
    1.2990   -0.7500    0.0000 C   0  0  0  0  0  0  0  0  0  0  0  0
    1.2990    0.7500    0.0000 C   0  0  0  0  0  0  0  0  0  0  0  0
    0.0000    1.5000    0.0000 C   0  0  0  0  0  0  0  0  0  0  0  0
    0.0000    2.7000    0.0000 Cl  0  0  0  0  0  0  0  0  0  0  0  0
   -1.2990    0.7500    0.0000 C   0  0  0  0  0  0  0  0  0  0  0  0
   -1.2990   -0.7500    0.0000 C   0  0  0  0  0  0  0  0  0  0  0  0
    0.0000   -1.5000    0.0000 C   0  0  0  0  0  0  0  0  0  0  0  0
   -0.0031   -3.0008    0.0000 C   0  0  0  0  0  0  0  0  0  0  0  0
    1.2953   -3.7535    0.0000 N   0  0  0  0  0  0  0  0  0  0  0  0
    1.2948   -5.2535    0.0000 C   0  0  0  0  0  0  0  0  0  0  0  0
    2.5936   -6.0040    0.0000 C   0  0  0  0  0  0  0  0  0  0  0  0
    3.8929   -5.2545    0.0000 N   0  0  0  0  0  0  0  0  0  0  0  0
    3.8935   -3.7545    0.0000 C   0  0  0  0  0  0  0  0  0  0  0  0
    2.5947   -3.0040    0.0000 C   0  0  0  0  0  0  0  0  0  0  0  0
    5.1939   -6.0027    0.0000 C   0  0  0  0  0  0  0  0  0  0  0  0
    5.1956   -7.2027    0.0000 O   0  0  0  0  0  0  0  0  0  0  0  0
    6.4929   -5.2510    0.0000 N   0  0  0  0  0  0  0  0  0  0  0  0
    7.7939   -5.9992    0.0000 C   0  0  0  0  0  0  0  0  0  0  0  0
    9.0933   -5.2497    0.0000 C   0  0  0  0  0  0  0  0  0  0  0  0
   10.3921   -6.0002    0.0000 C   0  0  0  0  0  0  0  0  0  0  0  0
   10.3915   -7.5002    0.0000 C   0  0  0  0  0  0  0  0  0  0  0  0
    9.0922   -8.2497    0.0000 C   0  0  0  0  0  0  0  0  0  0  0  0
    7.7935   -7.4993    0.0000 C   0  0  0  0  0  0  0  0  0  0  0  0
   -1.3039   -3.7494    0.0000 C   0  0  0  0  0  0  0  0  0  0  0  0
   -1.3092   -5.2494    0.0000 C   0  0  0  0  0  0  0  0  0  0  0  0
   -2.6108   -5.9949    0.0000 C   0  0  0  0  0  0  0  0  0  0  0  0
   -3.9072   -5.2404    0.0000 C   0  0  0  0  0  0  0  0  0  0  0  0
   -3.9020   -3.7404    0.0000 N   0  0  0  0  0  0  0  0  0  0  0  0
   -2.6004   -2.9949    0.0000 C   0  0  0  0  0  0  0  0  0  0  0  0
  1  2  1  0  0  0  0
  2  3  2  0  0  0  0
  3  4  1  0  0  0  0
  4  5  1  0  0  0  0
  4  6  2  0  0  0  0
  6  7  1  0  0  0  0
  7  8  2  0  0  0  0
  8  2  1  0  0  0  0
  8  9  1  0  0  0  0
  9 10  1  0  0  0  0
 10 11  1  0  0  0  0
 11 12  1  0  0  0  0
 12 13  1  0  0  0  0
 13 14  1  0  0  0  0
 14 15  1  0  0  0  0
 15 10  1  0  0  0  0
 13 16  1  0  0  0  0
 16 17  2  0  0  0  0
 16 18  1  0  0  0  0
 18 19  1  0  0  0  0
 19 20  2  0  0  0  0
 20 21  1  0  0  0  0
 21 22  2  0  0  0  0
 22 23  1  0  0  0  0
 23 24  2  0  0  0  0
 24 19  1  0  0  0  0
  9 25  1  0  0  0  0
 25 26  2  0  0  0  0
 26 27  1  0  0  0  0
 27 28  2  0  0  0  0
 28 29  1  0  0  0  0
 29 30  2  0  0  0  0
 30 25  1  0  0  0  0
M  END
>  <Other ID>
EPL-BS0447

>  <Source>
Epichem

>  <% growth M.myc at 100 uM>
5.515

>  <% growth M.myc at 25 uM>
22.23

>  <M. Myc IC50>
10.8

>  <M. Myc IC90>
15.8

>  <MIC50>


$$$$
Chemistry 58
  StarDrop          2D                              

 30 33  0  0  0  0  0  0  0  0999 V2000
    2.3383   -1.3500    0.0000 F   0  0  0  0  0  0  0  0  0  0  0  0
    1.2990   -0.7500    0.0000 C   0  0  0  0  0  0  0  0  0  0  0  0
    1.2990    0.7500    0.0000 C   0  0  0  0  0  0  0  0  0  0  0  0
    0.0000    1.5000    0.0000 C   0  0  0  0  0  0  0  0  0  0  0  0
    0.0000    2.7000    0.0000 Cl  0  0  0  0  0  0  0  0  0  0  0  0
   -1.2990    0.7500    0.0000 C   0  0  0  0  0  0  0  0  0  0  0  0
   -1.2990   -0.7500    0.0000 C   0  0  0  0  0  0  0  0  0  0  0  0
    0.0000   -1.5000    0.0000 C   0  0  0  0  0  0  0  0  0  0  0  0
   -0.0031   -3.0008    0.0000 C   0  0  0  0  0  0  0  0  0  0  0  0
    1.2953   -3.7535    0.0000 N   0  0  0  0  0  0  0  0  0  0  0  0
    1.2948   -5.2535    0.0000 C   0  0  0  0  0  0  0  0  0  0  0  0
    2.5936   -6.0040    0.0000 C   0  0  0  0  0  0  0  0  0  0  0  0
    3.8929   -5.2545    0.0000 N   0  0  0  0  0  0  0  0  0  0  0  0
    3.8935   -3.7545    0.0000 C   0  0  0  0  0  0  0  0  0  0  0  0
    2.5947   -3.0040    0.0000 C   0  0  0  0  0  0  0  0  0  0  0  0
    5.1939   -6.0027    0.0000 C   0  0  0  0  0  0  0  0  0  0  0  0
    5.1956   -7.2027    0.0000 O   0  0  0  0  0  0  0  0  0  0  0  0
    6.4929   -5.2510    0.0000 O   0  0  0  0  0  0  0  0  0  0  0  0
    7.7939   -5.9992    0.0000 C   0  0  0  0  0  0  0  0  0  0  0  0
    9.0933   -5.2497    0.0000 C   0  0  0  0  0  0  0  0  0  0  0  0
   10.3921   -6.0002    0.0000 C   0  0  0  0  0  0  0  0  0  0  0  0
   10.3915   -7.5002    0.0000 C   0  0  0  0  0  0  0  0  0  0  0  0
    9.0922   -8.2497    0.0000 C   0  0  0  0  0  0  0  0  0  0  0  0
    7.7935   -7.4993    0.0000 C   0  0  0  0  0  0  0  0  0  0  0  0
   -1.3039   -3.7494    0.0000 C   0  0  0  0  0  0  0  0  0  0  0  0
   -1.3092   -5.2494    0.0000 C   0  0  0  0  0  0  0  0  0  0  0  0
   -2.6108   -5.9949    0.0000 C   0  0  0  0  0  0  0  0  0  0  0  0
   -3.9072   -5.2404    0.0000 C   0  0  0  0  0  0  0  0  0  0  0  0
   -3.9020   -3.7404    0.0000 N   0  0  0  0  0  0  0  0  0  0  0  0
   -2.6004   -2.9949    0.0000 C   0  0  0  0  0  0  0  0  0  0  0  0
  1  2  1  0  0  0  0
  2  3  2  0  0  0  0
  3  4  1  0  0  0  0
  4  5  1  0  0  0  0
  4  6  2  0  0  0  0
  6  7  1  0  0  0  0
  7  8  2  0  0  0  0
  8  2  1  0  0  0  0
  8  9  1  0  0  0  0
  9 10  1  0  0  0  0
 10 11  1  0  0  0  0
 11 12  1  0  0  0  0
 12 13  1  0  0  0  0
 13 14  1  0  0  0  0
 14 15  1  0  0  0  0
 15 10  1  0  0  0  0
 13 16  1  0  0  0  0
 16 17  2  0  0  0  0
 16 18  1  0  0  0  0
 18 19  1  0  0  0  0
 19 20  2  0  0  0  0
 20 21  1  0  0  0  0
 21 22  2  0  0  0  0
 22 23  1  0  0  0  0
 23 24  2  0  0  0  0
 24 19  1  0  0  0  0
  9 25  1  0  0  0  0
 25 26  2  0  0  0  0
 26 27  1  0  0  0  0
 27 28  2  0  0  0  0
 28 29  1  0  0  0  0
 29 30  2  0  0  0  0
 30 25  1  0  0  0  0
M  END
>  <Other ID>
EPL-BS0494

>  <Source>
Epichem

>  <% growth M.myc at 100 uM>
11.48

>  <% growth M.myc at 25 uM>
29.95

>  <M. Myc IC50>


>  <M. Myc IC90>


>  <MIC50>


$$$$
Chemistry 59
  StarDrop          2D                              

 26 29  0  0  0  0  0  0  0  0999 V2000
    2.3383   -1.3500    0.0000 F   0  0  0  0  0  0  0  0  0  0  0  0
    1.2990   -0.7500    0.0000 C   0  0  0  0  0  0  0  0  0  0  0  0
    1.2990    0.7500    0.0000 C   0  0  0  0  0  0  0  0  0  0  0  0
    0.0000    1.5000    0.0000 C   0  0  0  0  0  0  0  0  0  0  0  0
    0.0000    2.7000    0.0000 Cl  0  0  0  0  0  0  0  0  0  0  0  0
   -1.2990    0.7500    0.0000 C   0  0  0  0  0  0  0  0  0  0  0  0
   -1.2990   -0.7500    0.0000 C   0  0  0  0  0  0  0  0  0  0  0  0
    0.0000   -1.5000    0.0000 C   0  0  0  0  0  0  0  0  0  0  0  0
   -0.0031   -3.0008    0.0000 C   0  0  0  0  0  0  0  0  0  0  0  0
    1.2953   -3.7535    0.0000 N   0  0  0  0  0  0  0  0  0  0  0  0
    1.2948   -5.2535    0.0000 C   0  0  0  0  0  0  0  0  0  0  0  0
    2.5936   -6.0040    0.0000 C   0  0  0  0  0  0  0  0  0  0  0  0
    3.8929   -5.2545    0.0000 N   0  0  0  0  0  0  0  0  0  0  0  0
    3.8935   -3.7545    0.0000 C   0  0  0  0  0  0  0  0  0  0  0  0
    2.5947   -3.0040    0.0000 C   0  0  0  0  0  0  0  0  0  0  0  0
    5.1939   -6.0027    0.0000 C   0  0  0  0  0  0  0  0  0  0  0  0
    5.1956   -7.2027    0.0000 O   0  0  0  0  0  0  0  0  0  0  0  0
    6.4929   -5.2510    0.0000 C   0  0  0  0  0  0  0  0  0  0  0  0
    7.9139   -5.2922    0.0000 C   0  0  0  0  0  0  0  0  0  0  0  0
    7.1598   -3.9955    0.0000 C   0  0  0  0  0  0  0  0  0  0  0  0
   -1.3039   -3.7494    0.0000 C   0  0  0  0  0  0  0  0  0  0  0  0
   -1.3092   -5.2494    0.0000 C   0  0  0  0  0  0  0  0  0  0  0  0
   -2.6108   -5.9949    0.0000 C   0  0  0  0  0  0  0  0  0  0  0  0
   -3.9072   -5.2404    0.0000 C   0  0  0  0  0  0  0  0  0  0  0  0
   -3.9020   -3.7404    0.0000 N   0  0  0  0  0  0  0  0  0  0  0  0
   -2.6004   -2.9949    0.0000 C   0  0  0  0  0  0  0  0  0  0  0  0
  1  2  1  0  0  0  0
  2  3  2  0  0  0  0
  3  4  1  0  0  0  0
  4  5  1  0  0  0  0
  4  6  2  0  0  0  0
  6  7  1  0  0  0  0
  7  8  2  0  0  0  0
  8  2  1  0  0  0  0
  8  9  1  0  0  0  0
  9 10  1  0  0  0  0
 10 11  1  0  0  0  0
 11 12  1  0  0  0  0
 12 13  1  0  0  0  0
 13 14  1  0  0  0  0
 14 15  1  0  0  0  0
 15 10  1  0  0  0  0
 13 16  1  0  0  0  0
 16 17  2  0  0  0  0
 16 18  1  0  0  0  0
 18 19  1  0  0  0  0
 19 20  1  0  0  0  0
 20 18  1  0  0  0  0
  9 21  1  0  0  0  0
 21 22  2  0  0  0  0
 22 23  1  0  0  0  0
 23 24  2  0  0  0  0
 24 25  1  0  0  0  0
 25 26  2  0  0  0  0
 26 21  1  0  0  0  0
M  END
>  <Other ID>
EPL-BS0549

>  <Source>
Epichem

>  <% growth M.myc at 100 uM>
4.842

>  <% growth M.myc at 25 uM>
16.88

>  <M. Myc IC50>
4

>  <M. Myc IC90>
7.8

>  <MIC50>


$$$$
Chemistry 60
  StarDrop          2D                              

 27 29  0  0  0  0  0  0  0  0999 V2000
    2.3383   -1.3500    0.0000 F   0  0  0  0  0  0  0  0  0  0  0  0
    1.2990   -0.7500    0.0000 C   0  0  0  0  0  0  0  0  0  0  0  0
    1.2990    0.7500    0.0000 C   0  0  0  0  0  0  0  0  0  0  0  0
    0.0000    1.5000    0.0000 C   0  0  0  0  0  0  0  0  0  0  0  0
    0.0000    2.7000    0.0000 Cl  0  0  0  0  0  0  0  0  0  0  0  0
   -1.2990    0.7500    0.0000 C   0  0  0  0  0  0  0  0  0  0  0  0
   -1.2990   -0.7500    0.0000 C   0  0  0  0  0  0  0  0  0  0  0  0
    0.0000   -1.5000    0.0000 C   0  0  0  0  0  0  0  0  0  0  0  0
   -0.0031   -3.0008    0.0000 C   0  0  0  0  0  0  0  0  0  0  0  0
    1.2953   -3.7535    0.0000 N   0  0  0  0  0  0  0  0  0  0  0  0
    1.2948   -5.2535    0.0000 C   0  0  0  0  0  0  0  0  0  0  0  0
    2.5936   -6.0040    0.0000 C   0  0  0  0  0  0  0  0  0  0  0  0
    3.8929   -5.2545    0.0000 N   0  0  0  0  0  0  0  0  0  0  0  0
    3.8935   -3.7545    0.0000 C   0  0  0  0  0  0  0  0  0  0  0  0
    2.5947   -3.0040    0.0000 C   0  0  0  0  0  0  0  0  0  0  0  0
    5.1939   -6.0027    0.0000 C   0  0  0  0  0  0  0  0  0  0  0  0
    5.1956   -7.2027    0.0000 O   0  0  0  0  0  0  0  0  0  0  0  0
    6.4929   -5.2510    0.0000 C   0  0  0  0  0  0  0  0  0  0  0  0
    7.5331   -5.8492    0.0000 F   0  0  0  0  0  0  0  0  0  0  0  0
    7.5312   -4.6494    0.0000 F   0  0  0  0  0  0  0  0  0  0  0  0
    6.4913   -4.0510    0.0000 F   0  0  0  0  0  0  0  0  0  0  0  0
   -1.3039   -3.7494    0.0000 C   0  0  0  0  0  0  0  0  0  0  0  0
   -1.3092   -5.2494    0.0000 C   0  0  0  0  0  0  0  0  0  0  0  0
   -2.6108   -5.9949    0.0000 C   0  0  0  0  0  0  0  0  0  0  0  0
   -3.9072   -5.2404    0.0000 C   0  0  0  0  0  0  0  0  0  0  0  0
   -3.9020   -3.7404    0.0000 N   0  0  0  0  0  0  0  0  0  0  0  0
   -2.6004   -2.9949    0.0000 C   0  0  0  0  0  0  0  0  0  0  0  0
  1  2  1  0  0  0  0
  2  3  2  0  0  0  0
  3  4  1  0  0  0  0
  4  5  1  0  0  0  0
  4  6  2  0  0  0  0
  6  7  1  0  0  0  0
  7  8  2  0  0  0  0
  8  2  1  0  0  0  0
  8  9  1  0  0  0  0
  9 10  1  0  0  0  0
 10 11  1  0  0  0  0
 11 12  1  0  0  0  0
 12 13  1  0  0  0  0
 13 14  1  0  0  0  0
 14 15  1  0  0  0  0
 15 10  1  0  0  0  0
 13 16  1  0  0  0  0
 16 17  2  0  0  0  0
 16 18  1  0  0  0  0
 18 19  1  0  0  0  0
 18 20  1  0  0  0  0
 18 21  1  0  0  0  0
  9 22  1  0  0  0  0
 22 23  2  0  0  0  0
 23 24  1  0  0  0  0
 24 25  2  0  0  0  0
 25 26  1  0  0  0  0
 26 27  2  0  0  0  0
 27 22  1  0  0  0  0
M  END
>  <Other ID>
EPL-BS0572

>  <Source>
Epichem

>  <% growth M.myc at 100 uM>
-1.332

>  <% growth M.myc at 25 uM>
86.55

>  <M. Myc IC50>


>  <M. Myc IC90>


>  <MIC50>


$$$$
Chemistry 61
  StarDrop          2D                              

 29 32  0  0  0  0  0  0  0  0999 V2000
    4.9460   -3.4943    0.0000 C   0  0  0  0  0  0  0  0  0  0  0  0
    3.8056   -3.8679    0.0000 C   0  0  0  0  0  0  0  0  0  0  0  0
    3.3372   -5.2929    0.0000 N   0  0  0  0  0  0  0  0  0  0  0  0
    1.8372   -5.2877    0.0000 C   0  0  0  0  0  0  0  0  0  0  0  0
    1.3786   -3.8595    0.0000 S   0  0  0  0  0  0  0  0  0  0  0  0
    2.5951   -3.0039    0.0000 C   0  0  0  0  0  0  0  0  0  0  0  0
    2.5973   -1.5031    0.0000 C   0  0  0  0  0  0  0  0  0  0  0  0
    3.6375   -0.9049    0.0000 O   0  0  0  0  0  0  0  0  0  0  0  0
    1.2990   -0.7500    0.0000 N   0  0  0  0  0  0  0  0  0  0  0  0
    1.2990    0.7500    0.0000 C   0  0  0  0  0  0  0  0  0  0  0  0
    0.0000    1.5000    0.0000 C   0  0  0  0  0  0  0  0  0  0  0  0
   -1.2990    0.7500    0.0000 N   0  0  0  0  0  0  0  0  0  0  0  0
   -1.2990   -0.7500    0.0000 C   0  0  0  0  0  0  0  0  0  0  0  0
    0.0000   -1.5000    0.0000 C   0  0  0  0  0  0  0  0  0  0  0  0
   -2.5998    1.4986    0.0000 C   0  0  0  0  0  0  0  0  0  0  0  0
   -3.8983    0.7460    0.0000 C   0  0  0  0  0  0  0  0  0  0  0  0
   -3.8989   -0.7540    0.0000 C   0  0  0  0  0  0  0  0  0  0  0  0
   -5.1982   -1.5035    0.0000 C   0  0  0  0  0  0  0  0  0  0  0  0
   -6.4970   -0.7530    0.0000 C   0  0  0  0  0  0  0  0  0  0  0  0
   -6.4964    0.7470    0.0000 N   0  0  0  0  0  0  0  0  0  0  0  0
   -5.1971    1.4965    0.0000 C   0  0  0  0  0  0  0  0  0  0  0  0
   -2.6013    2.9994    0.0000 C   0  0  0  0  0  0  0  0  0  0  0  0
   -3.9027    3.7455    0.0000 C   0  0  0  0  0  0  0  0  0  0  0  0
   -3.9073    5.2455    0.0000 C   0  0  0  0  0  0  0  0  0  0  0  0
   -2.6105    5.9995    0.0000 C   0  0  0  0  0  0  0  0  0  0  0  0
   -2.6142    7.1995    0.0000 Cl  0  0  0  0  0  0  0  0  0  0  0  0
   -1.3092    5.2535    0.0000 C   0  0  0  0  0  0  0  0  0  0  0  0
   -1.3046    3.7535    0.0000 C   0  0  0  0  0  0  0  0  0  0  0  0
   -0.2635    3.1567    0.0000 F   0  0  0  0  0  0  0  0  0  0  0  0
  1  2  1  0  0  0  0
  2  3  1  0  0  0  0
  3  4  2  0  0  0  0
  4  5  1  0  0  0  0
  5  6  1  0  0  0  0
  6  2  2  0  0  0  0
  6  7  1  0  0  0  0
  7  8  2  0  0  0  0
  7  9  1  0  0  0  0
  9 10  1  0  0  0  0
 10 11  1  0  0  0  0
 11 12  1  0  0  0  0
 12 13  1  0  0  0  0
 13 14  1  0  0  0  0
 14  9  1  0  0  0  0
 12 15  1  0  0  0  0
 15 16  1  0  0  0  0
 16 17  2  0  0  0  0
 17 18  1  0  0  0  0
 18 19  2  0  0  0  0
 19 20  1  0  0  0  0
 20 21  2  0  0  0  0
 21 16  1  0  0  0  0
 15 22  1  0  0  0  0
 22 23  2  0  0  0  0
 23 24  1  0  0  0  0
 24 25  2  0  0  0  0
 25 26  1  0  0  0  0
 25 27  1  0  0  0  0
 27 28  2  0  0  0  0
 28 22  1  0  0  0  0
 28 29  1  0  0  0  0
M  END
>  <Other ID>
EPL-BS0595

>  <Source>
Epichem

>  <% growth M.myc at 100 uM>
13.63

>  <% growth M.myc at 25 uM>
53.49

>  <M. Myc IC50>


>  <M. Myc IC90>


>  <MIC50>


$$$$
Chemistry 62
  StarDrop          2D                              

 29 32  0  0  0  0  0  0  0  0999 V2000
    1.1285   -6.2561    0.0000 C   0  0  0  0  0  0  0  0  0  0  0  0
    1.8372   -5.2877    0.0000 C   0  0  0  0  0  0  0  0  0  0  0  0
    3.3372   -5.2929    0.0000 O   0  0  0  0  0  0  0  0  0  0  0  0
    3.8056   -3.8679    0.0000 N   0  0  0  0  0  0  0  0  0  0  0  0
    2.5951   -3.0039    0.0000 C   0  0  0  0  0  0  0  0  0  0  0  0
    1.3786   -3.8595    0.0000 C   0  0  0  0  0  0  0  0  0  0  0  0
    2.5973   -1.5031    0.0000 C   0  0  0  0  0  0  0  0  0  0  0  0
    3.6375   -0.9049    0.0000 O   0  0  0  0  0  0  0  0  0  0  0  0
    1.2990   -0.7500    0.0000 N   0  0  0  0  0  0  0  0  0  0  0  0
    1.2990    0.7500    0.0000 C   0  0  0  0  0  0  0  0  0  0  0  0
    0.0000    1.5000    0.0000 C   0  0  0  0  0  0  0  0  0  0  0  0
   -1.2990    0.7500    0.0000 N   0  0  0  0  0  0  0  0  0  0  0  0
   -1.2990   -0.7500    0.0000 C   0  0  0  0  0  0  0  0  0  0  0  0
    0.0000   -1.5000    0.0000 C   0  0  0  0  0  0  0  0  0  0  0  0
   -2.5998    1.4986    0.0000 C   0  0  0  0  0  0  0  0  0  0  0  0
   -3.8983    0.7460    0.0000 C   0  0  0  0  0  0  0  0  0  0  0  0
   -3.8989   -0.7540    0.0000 C   0  0  0  0  0  0  0  0  0  0  0  0
   -5.1982   -1.5035    0.0000 C   0  0  0  0  0  0  0  0  0  0  0  0
   -6.4970   -0.7530    0.0000 C   0  0  0  0  0  0  0  0  0  0  0  0
   -6.4964    0.7470    0.0000 N   0  0  0  0  0  0  0  0  0  0  0  0
   -5.1971    1.4965    0.0000 C   0  0  0  0  0  0  0  0  0  0  0  0
   -2.6013    2.9994    0.0000 C   0  0  0  0  0  0  0  0  0  0  0  0
   -3.9027    3.7455    0.0000 C   0  0  0  0  0  0  0  0  0  0  0  0
   -3.9073    5.2455    0.0000 C   0  0  0  0  0  0  0  0  0  0  0  0
   -2.6105    5.9995    0.0000 C   0  0  0  0  0  0  0  0  0  0  0  0
   -2.6142    7.1995    0.0000 Cl  0  0  0  0  0  0  0  0  0  0  0  0
   -1.3092    5.2535    0.0000 C   0  0  0  0  0  0  0  0  0  0  0  0
   -1.3046    3.7535    0.0000 C   0  0  0  0  0  0  0  0  0  0  0  0
   -0.2635    3.1567    0.0000 F   0  0  0  0  0  0  0  0  0  0  0  0
  1  2  1  0  0  0  0
  2  3  1  0  0  0  0
  3  4  1  0  0  0  0
  4  5  2  0  0  0  0
  5  6  1  0  0  0  0
  6  2  2  0  0  0  0
  5  7  1  0  0  0  0
  7  8  2  0  0  0  0
  7  9  1  0  0  0  0
  9 10  1  0  0  0  0
 10 11  1  0  0  0  0
 11 12  1  0  0  0  0
 12 13  1  0  0  0  0
 13 14  1  0  0  0  0
 14  9  1  0  0  0  0
 12 15  1  0  0  0  0
 15 16  1  0  0  0  0
 16 17  2  0  0  0  0
 17 18  1  0  0  0  0
 18 19  2  0  0  0  0
 19 20  1  0  0  0  0
 20 21  2  0  0  0  0
 21 16  1  0  0  0  0
 15 22  1  0  0  0  0
 22 23  2  0  0  0  0
 23 24  1  0  0  0  0
 24 25  2  0  0  0  0
 25 26  1  0  0  0  0
 25 27  1  0  0  0  0
 27 28  2  0  0  0  0
 28 22  1  0  0  0  0
 28 29  1  0  0  0  0
M  END
>  <Other ID>
EPL-BS0609

>  <Source>
Epichem

>  <% growth M.myc at 100 uM>
2.412

>  <% growth M.myc at 25 uM>
26.96

>  <M. Myc IC50>


>  <M. Myc IC90>


>  <MIC50>


$$$$
Chemistry 70
  StarDrop          2D                              

 23 25  0  0  0  0  0  0  0  0999 V2000
    3.6375   -0.9049    0.0000 C   0  0  0  0  0  0  0  0  0  0  0  0
    2.5973   -1.5031    0.0000 C   0  0  0  0  0  0  0  0  0  0  0  0
    2.5956   -2.7031    0.0000 O   0  0  0  0  0  0  0  0  0  0  0  0
    1.2990   -0.7500    0.0000 N   0  0  0  0  0  0  0  0  0  0  0  0
    1.2990    0.7500    0.0000 C   0  0  0  0  0  0  0  0  0  0  0  0
    0.0000    1.5000    0.0000 C   0  0  0  0  0  0  0  0  0  0  0  0
   -1.2990    0.7500    0.0000 N   0  0  0  0  0  0  0  0  0  0  0  0
   -1.2990   -0.7500    0.0000 C   0  0  0  0  0  0  0  0  0  0  0  0
    0.0000   -1.5000    0.0000 C   0  0  0  0  0  0  0  0  0  0  0  0
   -2.5998    1.4986    0.0000 C   0  0  0  0  0  0  0  0  0  0  0  0
   -3.8983    0.7460    0.0000 C   0  0  0  0  0  0  0  0  0  0  0  0
   -3.8989   -0.7540    0.0000 C   0  0  0  0  0  0  0  0  0  0  0  0
   -5.1982   -1.5035    0.0000 C   0  0  0  0  0  0  0  0  0  0  0  0
   -6.4970   -0.7530    0.0000 C   0  0  0  0  0  0  0  0  0  0  0  0
   -7.5364   -1.3527    0.0000 Cl  0  0  0  0  0  0  0  0  0  0  0  0
   -6.4964    0.7470    0.0000 C   0  0  0  0  0  0  0  0  0  0  0  0
   -5.1971    1.4965    0.0000 C   0  0  0  0  0  0  0  0  0  0  0  0
   -2.6013    2.9994    0.0000 C   0  0  0  0  0  0  0  0  0  0  0  0
   -1.3046    3.7535    0.0000 C   0  0  0  0  0  0  0  0  0  0  0  0
   -1.3092    5.2535    0.0000 C   0  0  0  0  0  0  0  0  0  0  0  0
   -2.6105    5.9995    0.0000 C   0  0  0  0  0  0  0  0  0  0  0  0
   -3.9073    5.2455    0.0000 N   0  0  0  0  0  0  0  0  0  0  0  0
   -3.9027    3.7455    0.0000 C   0  0  0  0  0  0  0  0  0  0  0  0
  1  2  1  0  0  0  0
  2  3  2  0  0  0  0
  2  4  1  0  0  0  0
  4  5  1  0  0  0  0
  5  6  1  0  0  0  0
  6  7  1  0  0  0  0
  7  8  1  0  0  0  0
  8  9  1  0  0  0  0
  9  4  1  0  0  0  0
  7 10  1  0  0  0  0
 10 11  1  0  0  0  0
 11 12  2  0  0  0  0
 12 13  1  0  0  0  0
 13 14  2  0  0  0  0
 14 15  1  0  0  0  0
 14 16  1  0  0  0  0
 16 17  2  0  0  0  0
 17 11  1  0  0  0  0
 10 18  1  0  0  0  0
 18 19  2  0  0  0  0
 19 20  1  0  0  0  0
 20 21  2  0  0  0  0
 21 22  1  0  0  0  0
 22 23  2  0  0  0  0
 23 18  1  0  0  0  0
M  END
>  <Other ID>
EPL-BS0193

>  <Source>
Epichem

>  <% growth M.myc at 100 uM>
85.37

>  <% growth M.myc at 25 uM>
98.75

>  <M. Myc IC50>


>  <M. Myc IC90>


>  <MIC50>


$$$$
Chemistry 89
  StarDrop          2D                              

 31 34  0  0  0  0  0  0  0  0999 V2000
    2.3383   -1.3500    0.0000 F   0  0  0  0  0  0  0  0  0  0  0  0
    1.2990   -0.7500    0.0000 C   0  0  0  0  0  0  0  0  0  0  0  0
    1.2990    0.7500    0.0000 C   0  0  0  0  0  0  0  0  0  0  0  0
    0.0000    1.5000    0.0000 C   0  0  0  0  0  0  0  0  0  0  0  0
    0.0000    2.7000    0.0000 Cl  0  0  0  0  0  0  0  0  0  0  0  0
   -1.2990    0.7500    0.0000 C   0  0  0  0  0  0  0  0  0  0  0  0
   -1.2990   -0.7500    0.0000 C   0  0  0  0  0  0  0  0  0  0  0  0
    0.0000   -1.5000    0.0000 C   0  0  0  0  0  0  0  0  0  0  0  0
   -0.0031   -3.0008    0.0000 C   0  0  0  0  0  0  0  0  0  0  0  0
    1.2953   -3.7535    0.0000 N   0  0  0  0  0  0  0  0  0  0  0  0
    1.2948   -5.2535    0.0000 C   0  0  0  0  0  0  0  0  0  0  0  0
    2.5936   -6.0040    0.0000 C   0  0  0  0  0  0  0  0  0  0  0  0
    3.8929   -5.2545    0.0000 N   0  0  0  0  0  0  0  0  0  0  0  0
    3.8935   -3.7545    0.0000 C   0  0  0  0  0  0  0  0  0  0  0  0
    2.5947   -3.0040    0.0000 C   0  0  0  0  0  0  0  0  0  0  0  0
    5.1939   -6.0027    0.0000 C   0  0  0  0  0  0  0  0  0  0  0  0
    5.1956   -7.2027    0.0000 O   0  0  0  0  0  0  0  0  0  0  0  0
    6.4929   -5.2510    0.0000 O   0  0  0  0  0  0  0  0  0  0  0  0
    7.7939   -5.9992    0.0000 C   0  0  0  0  0  0  0  0  0  0  0  0
    9.0929   -5.2474    0.0000 C   0  0  0  0  0  0  0  0  0  0  0  0
   10.3943   -5.9933    0.0000 C   0  0  0  0  0  0  0  0  0  0  0  0
   11.6910   -5.2393    0.0000 C   0  0  0  0  0  0  0  0  0  0  0  0
   11.6864   -3.7393    0.0000 C   0  0  0  0  0  0  0  0  0  0  0  0
   10.3850   -2.9933    0.0000 C   0  0  0  0  0  0  0  0  0  0  0  0
    9.0883   -3.7473    0.0000 C   0  0  0  0  0  0  0  0  0  0  0  0
   -1.3039   -3.7494    0.0000 C   0  0  0  0  0  0  0  0  0  0  0  0
   -1.3092   -5.2494    0.0000 C   0  0  0  0  0  0  0  0  0  0  0  0
   -2.6108   -5.9949    0.0000 C   0  0  0  0  0  0  0  0  0  0  0  0
   -3.9072   -5.2404    0.0000 C   0  0  0  0  0  0  0  0  0  0  0  0
   -3.9020   -3.7404    0.0000 N   0  0  0  0  0  0  0  0  0  0  0  0
   -2.6004   -2.9949    0.0000 C   0  0  0  0  0  0  0  0  0  0  0  0
  1  2  1  0  0  0  0
  2  3  2  0  0  0  0
  3  4  1  0  0  0  0
  4  5  1  0  0  0  0
  4  6  2  0  0  0  0
  6  7  1  0  0  0  0
  7  8  2  0  0  0  0
  8  2  1  0  0  0  0
  8  9  1  0  0  0  0
  9 10  1  0  0  0  0
 10 11  1  0  0  0  0
 11 12  1  0  0  0  0
 12 13  1  0  0  0  0
 13 14  1  0  0  0  0
 14 15  1  0  0  0  0
 15 10  1  0  0  0  0
 13 16  1  0  0  0  0
 16 17  2  0  0  0  0
 16 18  1  0  0  0  0
 18 19  1  0  0  0  0
 19 20  1  0  0  0  0
 20 21  2  0  0  0  0
 21 22  1  0  0  0  0
 22 23  2  0  0  0  0
 23 24  1  0  0  0  0
 24 25  2  0  0  0  0
 25 20  1  0  0  0  0
  9 26  1  0  0  0  0
 26 27  2  0  0  0  0
 27 28  1  0  0  0  0
 28 29  2  0  0  0  0
 29 30  1  0  0  0  0
 30 31  2  0  0  0  0
 31 26  1  0  0  0  0
M  END
>  <Other ID>
EPL-BS0493

>  <Source>
Epichem

>  <% growth M.myc at 100 uM>
8.382

>  <% growth M.myc at 25 uM>
26.26

>  <M. Myc IC50>


>  <M. Myc IC90>


>  <MIC50>


$$$$
Chemistry 102
  StarDrop          2D                              

 32 35  0  0  0  0  0  0  0  0999 V2000
    4.9460   -3.4943    0.0000 C   0  0  0  0  0  0  0  0  0  0  0  0
    3.8056   -3.8679    0.0000 C   0  0  0  0  0  0  0  0  0  0  0  0
    3.3372   -5.2929    0.0000 N   0  0  0  0  0  0  0  0  0  0  0  0
    1.8372   -5.2877    0.0000 C   0  0  0  0  0  0  0  0  0  0  0  0
    1.3786   -3.8595    0.0000 S   0  0  0  0  0  0  0  0  0  0  0  0
    2.5951   -3.0039    0.0000 C   0  0  0  0  0  0  0  0  0  0  0  0
    2.5973   -1.5031    0.0000 C   0  0  0  0  0  0  0  0  0  0  0  0
    3.6375   -0.9049    0.0000 O   0  0  0  0  0  0  0  0  0  0  0  0
    1.2990   -0.7500    0.0000 N   0  0  0  0  0  0  0  0  0  0  0  0
    1.2990    0.7500    0.0000 C   0  0  0  0  0  0  0  0  0  0  0  0
    0.0000    1.5000    0.0000 C   0  0  0  0  0  0  0  0  0  0  0  0
   -1.2990    0.7500    0.0000 N   0  0  0  0  0  0  0  0  0  0  0  0
   -1.2990   -0.7500    0.0000 C   0  0  0  0  0  0  0  0  0  0  0  0
    0.0000   -1.5000    0.0000 C   0  0  0  0  0  0  0  0  0  0  0  0
   -2.5998    1.4986    0.0000 C   0  0  0  0  0  0  0  0  0  0  0  0
   -3.8983    0.7460    0.0000 C   0  0  0  0  0  0  0  0  0  0  0  0
   -3.8989   -0.7540    0.0000 C   0  0  0  0  0  0  0  0  0  0  0  0
   -5.1982   -1.5035    0.0000 C   0  0  0  0  0  0  0  0  0  0  0  0
   -6.4970   -0.7530    0.0000 C   0  0  0  0  0  0  0  0  0  0  0  0
   -6.4964    0.7470    0.0000 N   0  0  0  0  0  0  0  0  0  0  0  0
   -5.1971    1.4965    0.0000 C   0  0  0  0  0  0  0  0  0  0  0  0
   -2.6013    2.9994    0.0000 C   0  0  0  0  0  0  0  0  0  0  0  0
   -3.9027    3.7455    0.0000 C   0  0  0  0  0  0  0  0  0  0  0  0
   -3.9073    5.2455    0.0000 C   0  0  0  0  0  0  0  0  0  0  0  0
   -2.6105    5.9995    0.0000 C   0  0  0  0  0  0  0  0  0  0  0  0
   -1.3092    5.2535    0.0000 C   0  0  0  0  0  0  0  0  0  0  0  0
   -1.3046    3.7535    0.0000 C   0  0  0  0  0  0  0  0  0  0  0  0
   -0.2635    3.1567    0.0000 F   0  0  0  0  0  0  0  0  0  0  0  0
   -2.6151    7.5003    0.0000 C   0  0  0  0  0  0  0  0  0  0  0  0
   -3.6558    8.0978    0.0000 F   0  0  0  0  0  0  0  0  0  0  0  0
   -1.5776    8.1032    0.0000 F   0  0  0  0  0  0  0  0  0  0  0  0
   -2.6183    8.7003    0.0000 F   0  0  0  0  0  0  0  0  0  0  0  0
  1  2  1  0  0  0  0
  2  3  1  0  0  0  0
  3  4  2  0  0  0  0
  4  5  1  0  0  0  0
  5  6  1  0  0  0  0
  6  2  2  0  0  0  0
  6  7  1  0  0  0  0
  7  8  2  0  0  0  0
  7  9  1  0  0  0  0
  9 10  1  0  0  0  0
 10 11  1  0  0  0  0
 11 12  1  0  0  0  0
 12 13  1  0  0  0  0
 13 14  1  0  0  0  0
 14  9  1  0  0  0  0
 12 15  1  0  0  0  0
 15 16  1  0  0  0  0
 16 17  2  0  0  0  0
 17 18  1  0  0  0  0
 18 19  2  0  0  0  0
 19 20  1  0  0  0  0
 20 21  2  0  0  0  0
 21 16  1  0  0  0  0
 15 22  1  0  0  0  0
 22 23  2  0  0  0  0
 23 24  1  0  0  0  0
 24 25  2  0  0  0  0
 25 26  1  0  0  0  0
 26 27  2  0  0  0  0
 27 22  1  0  0  0  0
 27 28  1  0  0  0  0
 25 29  1  0  0  0  0
 29 30  1  0  0  0  0
 29 31  1  0  0  0  0
 29 32  1  0  0  0  0
M  END
>  <Other ID>
EPL-BS0756

>  <Source>
Epichem

>  <% growth M.myc at 100 uM>
66.71

>  <% growth M.myc at 25 uM>
83.32

>  <M. Myc IC50>


>  <M. Myc IC90>


>  <MIC50>


$$$$
Chemistry 20
  StarDrop          2D                              

 27 29  0  0  0  0  0  0  0  0999 V2000
    2.5984   -2.7004    0.0000 C   0  0  0  0  0  0  0  0  0  0  0  0
    2.5988   -1.5004    0.0000 S   0  0  0  0  0  0  0  0  0  0  0  0
    3.6384   -0.9011    0.0000 O   0  0  0  0  0  0  0  0  0  0  0  0
    3.6377   -2.1009    0.0000 O   0  0  0  0  0  0  0  0  0  0  0  0
    1.2990   -0.7500    0.0000 N   0  0  0  0  0  0  0  0  0  0  0  0
    1.2990    0.7500    0.0000 C   0  0  0  0  0  0  0  0  0  0  0  0
    0.0000    1.5000    0.0000 C   0  0  0  0  0  0  0  0  0  0  0  0
   -1.2990    0.7500    0.0000 N   0  0  0  0  0  0  0  0  0  0  0  0
   -1.2990   -0.7500    0.0000 C   0  0  0  0  0  0  0  0  0  0  0  0
    0.0000   -1.5000    0.0000 C   0  0  0  0  0  0  0  0  0  0  0  0
   -2.5998    1.4986    0.0000 C   0  0  0  0  0  0  0  0  0  0  0  0
   -3.8983    0.7460    0.0000 C   0  0  0  0  0  0  0  0  0  0  0  0
   -3.8989   -0.7540    0.0000 C   0  0  0  0  0  0  0  0  0  0  0  0
   -5.1982   -1.5035    0.0000 C   0  0  0  0  0  0  0  0  0  0  0  0
   -6.4970   -0.7530    0.0000 C   0  0  0  0  0  0  0  0  0  0  0  0
   -6.4964    0.7470    0.0000 C   0  0  0  0  0  0  0  0  0  0  0  0
   -5.1971    1.4965    0.0000 C   0  0  0  0  0  0  0  0  0  0  0  0
   -7.7970   -1.5030    0.0000 C   0  0  0  0  0  0  0  0  0  0  0  0
   -7.7982   -2.7030    0.0000 F   0  0  0  0  0  0  0  0  0  0  0  0
   -8.8358   -0.9023    0.0000 F   0  0  0  0  0  0  0  0  0  0  0  0
   -8.8367   -2.1021    0.0000 F   0  0  0  0  0  0  0  0  0  0  0  0
   -2.6013    2.9994    0.0000 C   0  0  0  0  0  0  0  0  0  0  0  0
   -1.3046    3.7535    0.0000 C   0  0  0  0  0  0  0  0  0  0  0  0
   -1.3092    5.2535    0.0000 N   0  0  0  0  0  0  0  0  0  0  0  0
   -2.6105    5.9995    0.0000 C   0  0  0  0  0  0  0  0  0  0  0  0
   -3.9073    5.2455    0.0000 N   0  0  0  0  0  0  0  0  0  0  0  0
   -3.9027    3.7455    0.0000 C   0  0  0  0  0  0  0  0  0  0  0  0
  1  2  1  0  0  0  0
  2  3  2  0  0  0  0
  2  4  2  0  0  0  0
  2  5  1  0  0  0  0
  5  6  1  0  0  0  0
  6  7  1  0  0  0  0
  7  8  1  0  0  0  0
  8  9  1  0  0  0  0
  9 10  1  0  0  0  0
 10  5  1  0  0  0  0
  8 11  1  0  0  0  0
 11 12  1  0  0  0  0
 12 13  2  0  0  0  0
 13 14  1  0  0  0  0
 14 15  2  0  0  0  0
 15 16  1  0  0  0  0
 16 17  2  0  0  0  0
 17 12  1  0  0  0  0
 15 18  1  0  0  0  0
 18 19  1  0  0  0  0
 18 20  1  0  0  0  0
 18 21  1  0  0  0  0
 11 22  1  0  0  0  0
 22 23  2  0  0  0  0
 23 24  1  0  0  0  0
 24 25  2  0  0  0  0
 25 26  1  0  0  0  0
 26 27  2  0  0  0  0
 27 22  1  0  0  0  0
M  END
>  <Other ID>
EPL-BS0654

>  <Source>
Epichem

>  <% growth M.myc at 100 uM>
86.93

>  <% growth M.myc at 25 uM>
92.95

>  <M. Myc IC50>


>  <M. Myc IC90>


>  <MIC50>


$$$$
Chemistry 23
  StarDrop          2D                              

 30 33  0  0  0  0  0  0  0  0999 V2000
    4.6873   -4.3927    0.0000 C   0  0  0  0  0  0  0  0  0  0  0  0
    4.2010   -3.2956    0.0000 C   0  0  0  0  0  0  0  0  0  0  0  0
    4.9531   -1.9978    0.0000 N   0  0  0  0  0  0  0  0  0  0  0  0
    3.9511   -0.8815    0.0000 O   0  0  0  0  0  0  0  0  0  0  0  0
    2.5987   -1.5004    0.0000 C   0  0  0  0  0  0  0  0  0  0  0  0
    2.7343   -2.9815    0.0000 N   0  0  0  0  0  0  0  0  0  0  0  0
    1.2990   -0.7500    0.0000 N   0  0  0  0  0  0  0  0  0  0  0  0
    1.2990    0.7500    0.0000 C   0  0  0  0  0  0  0  0  0  0  0  0
    0.0000    1.5000    0.0000 C   0  0  0  0  0  0  0  0  0  0  0  0
   -1.2990    0.7500    0.0000 N   0  0  0  0  0  0  0  0  0  0  0  0
   -1.2990   -0.7500    0.0000 C   0  0  0  0  0  0  0  0  0  0  0  0
    0.0000   -1.5000    0.0000 C   0  0  0  0  0  0  0  0  0  0  0  0
   -2.5998    1.4986    0.0000 C   0  0  0  0  0  0  0  0  0  0  0  0
   -3.8983    0.7460    0.0000 C   0  0  0  0  0  0  0  0  0  0  0  0
   -3.8989   -0.7540    0.0000 C   0  0  0  0  0  0  0  0  0  0  0  0
   -5.1982   -1.5035    0.0000 N   0  0  0  0  0  0  0  0  0  0  0  0
   -6.4970   -0.7530    0.0000 C   0  0  0  0  0  0  0  0  0  0  0  0
   -6.4964    0.7470    0.0000 N   0  0  0  0  0  0  0  0  0  0  0  0
   -5.1971    1.4965    0.0000 C   0  0  0  0  0  0  0  0  0  0  0  0
   -2.6013    2.9994    0.0000 C   0  0  0  0  0  0  0  0  0  0  0  0
   -3.9027    3.7455    0.0000 C   0  0  0  0  0  0  0  0  0  0  0  0
   -3.9073    5.2455    0.0000 C   0  0  0  0  0  0  0  0  0  0  0  0
   -2.6105    5.9995    0.0000 C   0  0  0  0  0  0  0  0  0  0  0  0
   -1.3092    5.2535    0.0000 C   0  0  0  0  0  0  0  0  0  0  0  0
   -1.3046    3.7535    0.0000 C   0  0  0  0  0  0  0  0  0  0  0  0
   -0.2635    3.1567    0.0000 F   0  0  0  0  0  0  0  0  0  0  0  0
   -2.6151    7.5003    0.0000 C   0  0  0  0  0  0  0  0  0  0  0  0
   -3.6558    8.0978    0.0000 F   0  0  0  0  0  0  0  0  0  0  0  0
   -1.5776    8.1032    0.0000 F   0  0  0  0  0  0  0  0  0  0  0  0
   -2.6183    8.7003    0.0000 F   0  0  0  0  0  0  0  0  0  0  0  0
  1  2  1  0  0  0  0
  2  3  2  0  0  0  0
  3  4  1  0  0  0  0
  4  5  1  0  0  0  0
  5  6  2  0  0  0  0
  6  2  1  0  0  0  0
  5  7  1  0  0  0  0
  7  8  1  0  0  0  0
  8  9  1  0  0  0  0
  9 10  1  0  0  0  0
 10 11  1  0  0  0  0
 11 12  1  0  0  0  0
 12  7  1  0  0  0  0
 10 13  1  0  0  0  0
 13 14  1  0  0  0  0
 14 15  2  0  0  0  0
 15 16  1  0  0  0  0
 16 17  2  0  0  0  0
 17 18  1  0  0  0  0
 18 19  2  0  0  0  0
 19 14  1  0  0  0  0
 13 20  1  0  0  0  0
 20 21  2  0  0  0  0
 21 22  1  0  0  0  0
 22 23  2  0  0  0  0
 23 24  1  0  0  0  0
 24 25  2  0  0  0  0
 25 20  1  0  0  0  0
 25 26  1  0  0  0  0
 23 27  1  0  0  0  0
 27 28  1  0  0  0  0
 27 29  1  0  0  0  0
 27 30  1  0  0  0  0
M  END
>  <Other ID>
EPL-BS0729

>  <Source>
Epichem

>  <% growth M.myc at 100 uM>
14.76

>  <% growth M.myc at 25 uM>
47.79

>  <M. Myc IC50>


>  <M. Myc IC90>


>  <MIC50>


$$$$
Chemistry 36
  StarDrop          2D                              

 27 29  0  0  0  0  0  0  0  0999 V2000
    5.1877   -7.2109    0.0000 O   0  0  0  0  0  0  0  0  0  0  0  0
    5.1894   -6.0109    0.0000 C   0  0  0  0  0  0  0  0  0  0  0  0
    3.8912   -5.2578    0.0000 C   0  0  0  0  0  0  0  0  0  0  0  0
    3.8933   -3.7570    0.0000 O   0  0  0  0  0  0  0  0  0  0  0  0
    2.5951   -3.0039    0.0000 C   0  0  0  0  0  0  0  0  0  0  0  0
    2.5973   -1.5031    0.0000 C   0  0  0  0  0  0  0  0  0  0  0  0
    1.2990   -0.7500    0.0000 N   0  0  0  0  0  0  0  0  0  0  0  0
    1.2990    0.7500    0.0000 C   0  0  0  0  0  0  0  0  0  0  0  0
    0.0000    1.5000    0.0000 C   0  0  0  0  0  0  0  0  0  0  0  0
   -1.2990    0.7500    0.0000 N   0  0  0  0  0  0  0  0  0  0  0  0
   -1.2990   -0.7500    0.0000 C   0  0  0  0  0  0  0  0  0  0  0  0
    0.0000   -1.5000    0.0000 C   0  0  0  0  0  0  0  0  0  0  0  0
   -2.5998    1.4986    0.0000 C   0  0  0  0  0  0  0  0  0  0  0  0
   -3.8983    0.7460    0.0000 C   0  0  0  0  0  0  0  0  0  0  0  0
   -3.8989   -0.7540    0.0000 C   0  0  0  0  0  0  0  0  0  0  0  0
   -5.1982   -1.5035    0.0000 C   0  0  0  0  0  0  0  0  0  0  0  0
   -6.4970   -0.7530    0.0000 C   0  0  0  0  0  0  0  0  0  0  0  0
   -6.4964    0.7470    0.0000 C   0  0  0  0  0  0  0  0  0  0  0  0
   -5.1971    1.4965    0.0000 C   0  0  0  0  0  0  0  0  0  0  0  0
   -2.6013    2.9994    0.0000 C   0  0  0  0  0  0  0  0  0  0  0  0
   -1.3046    3.7535    0.0000 C   0  0  0  0  0  0  0  0  0  0  0  0
   -1.3092    5.2535    0.0000 C   0  0  0  0  0  0  0  0  0  0  0  0
   -2.6105    5.9995    0.0000 C   0  0  0  0  0  0  0  0  0  0  0  0
   -2.6142    7.1995    0.0000 Cl  0  0  0  0  0  0  0  0  0  0  0  0
   -3.9073    5.2455    0.0000 C   0  0  0  0  0  0  0  0  0  0  0  0
   -3.9027    3.7455    0.0000 C   0  0  0  0  0  0  0  0  0  0  0  0
    6.2297   -5.4127    0.0000 O   0  0  0  0  0  0  0  0  0  0  0  0
  1  2  2  0  0  0  0
  2  3  1  0  0  0  0
  3  4  1  0  0  0  0
  4  5  1  0  0  0  0
  5  6  1  0  0  0  0
  6  7  1  0  0  0  0
  7  8  1  0  0  0  0
  8  9  1  0  0  0  0
  9 10  1  0  0  0  0
 10 11  1  0  0  0  0
 11 12  1  0  0  0  0
 12  7  1  0  0  0  0
 10 13  1  0  0  0  0
 13 14  1  0  0  0  0
 14 15  2  0  0  0  0
 15 16  1  0  0  0  0
 16 17  2  0  0  0  0
 17 18  1  0  0  0  0
 18 19  2  0  0  0  0
 19 14  1  0  0  0  0
 13 20  1  0  0  0  0
 20 21  2  0  0  0  0
 21 22  1  0  0  0  0
 22 23  2  0  0  0  0
 23 24  1  0  0  0  0
 23 25  1  0  0  0  0
 25 26  2  0  0  0  0
 26 20  1  0  0  0  0
  2 27  1  0  0  0  0
M  END
>  <Other ID>
Cetirizine.HCl

>  <Source>
Commercial

>  <% growth M.myc at 100 uM>
47.55

>  <% growth M.myc at 25 uM>


>  <M. Myc IC50>
9.96

>  <M. Myc IC90>
>16

>  <MIC50>
>16

$$$$
Chemistry 76
  StarDrop          2D                              

 31 34  0  0  0  0  0  0  0  0999 V2000
    3.6387   -0.8963    0.0000 C   0  0  0  0  0  0  0  0  0  0  0  0
    2.6003   -1.4977    0.0000 O   0  0  0  0  0  0  0  0  0  0  0  0
    1.2990   -0.7500    0.0000 C   0  0  0  0  0  0  0  0  0  0  0  0
    1.2990    0.7500    0.0000 C   0  0  0  0  0  0  0  0  0  0  0  0
    0.0000    1.5000    0.0000 C   0  0  0  0  0  0  0  0  0  0  0  0
   -1.2990    0.7500    0.0000 C   0  0  0  0  0  0  0  0  0  0  0  0
   -1.2990   -0.7500    0.0000 C   0  0  0  0  0  0  0  0  0  0  0  0
    0.0000   -1.5000    0.0000 C   0  0  0  0  0  0  0  0  0  0  0  0
    0.0000   -3.0008    0.0000 N   0  0  0  0  0  0  0  0  0  0  0  0
   -1.2978   -3.7529    0.0000 C   0  0  0  0  0  0  0  0  0  0  0  0
   -1.2955   -5.2529    0.0000 C   0  0  0  0  0  0  0  0  0  0  0  0
    0.0048   -6.0009    0.0000 N   0  0  0  0  0  0  0  0  0  0  0  0
    1.3026   -5.2488    0.0000 C   0  0  0  0  0  0  0  0  0  0  0  0
    1.3002   -3.7488    0.0000 C   0  0  0  0  0  0  0  0  0  0  0  0
    0.0092   -7.5016    0.0000 C   0  0  0  0  0  0  0  0  0  0  0  0
    1.3114   -8.2478    0.0000 C   0  0  0  0  0  0  0  0  0  0  0  0
    2.6096   -7.4963    0.0000 C   0  0  0  0  0  0  0  0  0  0  0  0
    3.9095   -8.2447    0.0000 C   0  0  0  0  0  0  0  0  0  0  0  0
    3.9114   -9.7447    0.0000 C   0  0  0  0  0  0  0  0  0  0  0  0
    2.6132  -10.4963    0.0000 C   0  0  0  0  0  0  0  0  0  0  0  0
    1.3133   -9.7479    0.0000 C   0  0  0  0  0  0  0  0  0  0  0  0
    5.2120  -10.4935    0.0000 C   0  0  0  0  0  0  0  0  0  0  0  0
    6.2509   -9.8929    0.0000 F   0  0  0  0  0  0  0  0  0  0  0  0
    5.2131  -11.6935    0.0000 F   0  0  0  0  0  0  0  0  0  0  0  0
    6.2517  -11.0927    0.0000 F   0  0  0  0  0  0  0  0  0  0  0  0
   -1.2886   -8.2554    0.0000 C   0  0  0  0  0  0  0  0  0  0  0  0
   -2.5912   -7.5116    0.0000 C   0  0  0  0  0  0  0  0  0  0  0  0
   -3.8867   -8.2676    0.0000 N   0  0  0  0  0  0  0  0  0  0  0  0
   -3.8797   -9.7676    0.0000 C   0  0  0  0  0  0  0  0  0  0  0  0
   -2.5772  -10.5115    0.0000 C   0  0  0  0  0  0  0  0  0  0  0  0
   -1.2817   -9.7555    0.0000 N   0  0  0  0  0  0  0  0  0  0  0  0
  1  2  1  0  0  0  0
  2  3  1  0  0  0  0
  3  4  2  0  0  0  0
  4  5  1  0  0  0  0
  5  6  2  0  0  0  0
  6  7  1  0  0  0  0
  7  8  2  0  0  0  0
  8  3  1  0  0  0  0
  8  9  1  0  0  0  0
  9 10  1  0  0  0  0
 10 11  1  0  0  0  0
 11 12  1  0  0  0  0
 12 13  1  0  0  0  0
 13 14  1  0  0  0  0
 14  9  1  0  0  0  0
 12 15  1  0  0  0  0
 15 16  1  0  0  0  0
 16 17  2  0  0  0  0
 17 18  1  0  0  0  0
 18 19  2  0  0  0  0
 19 20  1  0  0  0  0
 20 21  2  0  0  0  0
 21 16  1  0  0  0  0
 19 22  1  0  0  0  0
 22 23  1  0  0  0  0
 22 24  1  0  0  0  0
 22 25  1  0  0  0  0
 15 26  1  0  0  0  0
 26 27  2  0  0  0  0
 27 28  1  0  0  0  0
 28 29  2  0  0  0  0
 29 30  1  0  0  0  0
 30 31  2  0  0  0  0
 31 26  1  0  0  0  0
M  END
>  <Other ID>
EPL-BS0277

>  <Source>
Epichem

>  <% growth M.myc at 100 uM>
91.32

>  <% growth M.myc at 25 uM>
85.17

>  <M. Myc IC50>


>  <M. Myc IC90>


>  <MIC50>


$$$$
Chemistry 80
  StarDrop          2D                              

 29 32  0  0  0  0  0  0  0  0999 V2000
    3.6387   -0.8963    0.0000 C   0  0  0  0  0  0  0  0  0  0  0  0
    2.6003   -1.4977    0.0000 O   0  0  0  0  0  0  0  0  0  0  0  0
    1.2990   -0.7500    0.0000 C   0  0  0  0  0  0  0  0  0  0  0  0
    1.2990    0.7500    0.0000 C   0  0  0  0  0  0  0  0  0  0  0  0
    0.0000    1.5000    0.0000 C   0  0  0  0  0  0  0  0  0  0  0  0
   -1.2990    0.7500    0.0000 C   0  0  0  0  0  0  0  0  0  0  0  0
   -1.2990   -0.7500    0.0000 C   0  0  0  0  0  0  0  0  0  0  0  0
    0.0000   -1.5000    0.0000 C   0  0  0  0  0  0  0  0  0  0  0  0
    0.0000   -3.0008    0.0000 N   0  0  0  0  0  0  0  0  0  0  0  0
   -1.2978   -3.7529    0.0000 C   0  0  0  0  0  0  0  0  0  0  0  0
   -1.2955   -5.2529    0.0000 C   0  0  0  0  0  0  0  0  0  0  0  0
    0.0048   -6.0009    0.0000 N   0  0  0  0  0  0  0  0  0  0  0  0
    1.3026   -5.2488    0.0000 C   0  0  0  0  0  0  0  0  0  0  0  0
    1.3002   -3.7488    0.0000 C   0  0  0  0  0  0  0  0  0  0  0  0
    0.0092   -7.5016    0.0000 C   0  0  0  0  0  0  0  0  0  0  0  0
    1.3114   -8.2478    0.0000 C   0  0  0  0  0  0  0  0  0  0  0  0
    2.6096   -7.4963    0.0000 C   0  0  0  0  0  0  0  0  0  0  0  0
    3.9095   -8.2447    0.0000 N   0  0  0  0  0  0  0  0  0  0  0  0
    3.9114   -9.7447    0.0000 C   0  0  0  0  0  0  0  0  0  0  0  0
    2.6132  -10.4963    0.0000 N   0  0  0  0  0  0  0  0  0  0  0  0
    1.3133   -9.7479    0.0000 C   0  0  0  0  0  0  0  0  0  0  0  0
   -1.2886   -8.2554    0.0000 C   0  0  0  0  0  0  0  0  0  0  0  0
   -1.2817   -9.7555    0.0000 C   0  0  0  0  0  0  0  0  0  0  0  0
   -2.5772  -10.5115    0.0000 C   0  0  0  0  0  0  0  0  0  0  0  0
   -3.8797   -9.7676    0.0000 C   0  0  0  0  0  0  0  0  0  0  0  0
   -4.9162  -10.3724    0.0000 Cl  0  0  0  0  0  0  0  0  0  0  0  0
   -3.8867   -8.2676    0.0000 C   0  0  0  0  0  0  0  0  0  0  0  0
   -2.5912   -7.5116    0.0000 C   0  0  0  0  0  0  0  0  0  0  0  0
   -2.5968   -6.3116    0.0000 F   0  0  0  0  0  0  0  0  0  0  0  0
  1  2  1  0  0  0  0
  2  3  1  0  0  0  0
  3  4  2  0  0  0  0
  4  5  1  0  0  0  0
  5  6  2  0  0  0  0
  6  7  1  0  0  0  0
  7  8  2  0  0  0  0
  8  3  1  0  0  0  0
  8  9  1  0  0  0  0
  9 10  1  0  0  0  0
 10 11  1  0  0  0  0
 11 12  1  0  0  0  0
 12 13  1  0  0  0  0
 13 14  1  0  0  0  0
 14  9  1  0  0  0  0
 12 15  1  0  0  0  0
 15 16  1  0  0  0  0
 16 17  2  0  0  0  0
 17 18  1  0  0  0  0
 18 19  2  0  0  0  0
 19 20  1  0  0  0  0
 20 21  2  0  0  0  0
 21 16  1  0  0  0  0
 15 22  1  0  0  0  0
 22 23  2  0  0  0  0
 23 24  1  0  0  0  0
 24 25  2  0  0  0  0
 25 26  1  0  0  0  0
 25 27  1  0  0  0  0
 27 28  2  0  0  0  0
 28 22  1  0  0  0  0
 28 29  1  0  0  0  0
M  END
>  <Other ID>
EPL-BS0348

>  <Source>
Epichem

>  <% growth M.myc at 100 uM>
82.07

>  <% growth M.myc at 25 uM>
83.4

>  <M. Myc IC50>


>  <M. Myc IC90>


>  <MIC50>


$$$$
Chemistry 81
  StarDrop          2D                              

 24 26  0  0  0  0  0  0  0  0999 V2000
    3.6331   -3.6060    0.0000 C   0  0  0  0  0  0  0  0  0  0  0  0
    2.5951   -3.0039    0.0000 C   0  0  0  0  0  0  0  0  0  0  0  0
    2.5973   -1.5031    0.0000 C   0  0  0  0  0  0  0  0  0  0  0  0
    3.6375   -0.9049    0.0000 O   0  0  0  0  0  0  0  0  0  0  0  0
    1.2990   -0.7500    0.0000 N   0  0  0  0  0  0  0  0  0  0  0  0
    1.2990    0.7500    0.0000 C   0  0  0  0  0  0  0  0  0  0  0  0
    0.0000    1.5000    0.0000 C   0  0  0  0  0  0  0  0  0  0  0  0
   -1.2990    0.7500    0.0000 N   0  0  0  0  0  0  0  0  0  0  0  0
   -1.2990   -0.7500    0.0000 C   0  0  0  0  0  0  0  0  0  0  0  0
    0.0000   -1.5000    0.0000 C   0  0  0  0  0  0  0  0  0  0  0  0
   -2.5998    1.4986    0.0000 C   0  0  0  0  0  0  0  0  0  0  0  0
   -3.8983    0.7460    0.0000 C   0  0  0  0  0  0  0  0  0  0  0  0
   -3.8989   -0.7540    0.0000 C   0  0  0  0  0  0  0  0  0  0  0  0
   -5.1982   -1.5035    0.0000 C   0  0  0  0  0  0  0  0  0  0  0  0
   -6.4970   -0.7530    0.0000 C   0  0  0  0  0  0  0  0  0  0  0  0
   -7.5364   -1.3527    0.0000 Cl  0  0  0  0  0  0  0  0  0  0  0  0
   -6.4964    0.7470    0.0000 C   0  0  0  0  0  0  0  0  0  0  0  0
   -5.1971    1.4965    0.0000 C   0  0  0  0  0  0  0  0  0  0  0  0
   -2.6013    2.9994    0.0000 C   0  0  0  0  0  0  0  0  0  0  0  0
   -1.3046    3.7535    0.0000 C   0  0  0  0  0  0  0  0  0  0  0  0
   -1.3092    5.2535    0.0000 N   0  0  0  0  0  0  0  0  0  0  0  0
   -2.6105    5.9995    0.0000 C   0  0  0  0  0  0  0  0  0  0  0  0
   -3.9073    5.2455    0.0000 N   0  0  0  0  0  0  0  0  0  0  0  0
   -3.9027    3.7455    0.0000 C   0  0  0  0  0  0  0  0  0  0  0  0
  1  2  1  0  0  0  0
  2  3  1  0  0  0  0
  3  4  2  0  0  0  0
  3  5  1  0  0  0  0
  5  6  1  0  0  0  0
  6  7  1  0  0  0  0
  7  8  1  0  0  0  0
  8  9  1  0  0  0  0
  9 10  1  0  0  0  0
 10  5  1  0  0  0  0
  8 11  1  0  0  0  0
 11 12  1  0  0  0  0
 12 13  2  0  0  0  0
 13 14  1  0  0  0  0
 14 15  2  0  0  0  0
 15 16  1  0  0  0  0
 15 17  1  0  0  0  0
 17 18  2  0  0  0  0
 18 12  1  0  0  0  0
 11 19  1  0  0  0  0
 19 20  2  0  0  0  0
 20 21  1  0  0  0  0
 21 22  2  0  0  0  0
 22 23  1  0  0  0  0
 23 24  2  0  0  0  0
 24 19  1  0  0  0  0
M  END
>  <Other ID>
EPL-BS0356

>  <Source>
Epichem

>  <% growth M.myc at 100 uM>
93.47

>  <% growth M.myc at 25 uM>
100.8

>  <M. Myc IC50>


>  <M. Myc IC90>


>  <MIC50>


$$$$
Chemistry 82
  StarDrop          2D                              

 25 28  0  0  0  0  0  0  0  0999 V2000
    2.3383   -1.3500    0.0000 Cl  0  0  0  0  0  0  0  0  0  0  0  0
    1.2990   -0.7500    0.0000 C   0  0  0  0  0  0  0  0  0  0  0  0
    1.2990    0.7500    0.0000 C   0  0  0  0  0  0  0  0  0  0  0  0
    0.0000    1.5000    0.0000 C   0  0  0  0  0  0  0  0  0  0  0  0
   -1.2990    0.7500    0.0000 C   0  0  0  0  0  0  0  0  0  0  0  0
   -1.2990   -0.7500    0.0000 C   0  0  0  0  0  0  0  0  0  0  0  0
    0.0000   -1.5000    0.0000 C   0  0  0  0  0  0  0  0  0  0  0  0
   -2.6003    1.4977    0.0000 C   0  0  0  0  0  0  0  0  0  0  0  0
   -2.6030    2.9985    0.0000 N   0  0  0  0  0  0  0  0  0  0  0  0
   -3.9023    3.7481    0.0000 C   0  0  0  0  0  0  0  0  0  0  0  0
   -3.9029    5.2481    0.0000 C   0  0  0  0  0  0  0  0  0  0  0  0
   -2.6041    5.9986    0.0000 N   0  0  0  0  0  0  0  0  0  0  0  0
   -1.3048    5.2491    0.0000 C   0  0  0  0  0  0  0  0  0  0  0  0
   -1.3042    3.7491    0.0000 C   0  0  0  0  0  0  0  0  0  0  0  0
   -2.6016    7.4994    0.0000 C   0  0  0  0  0  0  0  0  0  0  0  0
   -3.6400    8.1009    0.0000 O   0  0  0  0  0  0  0  0  0  0  0  0
   -1.3011    8.2485    0.0000 C   0  0  0  0  0  0  0  0  0  0  0  0
   -0.6263    9.4997    0.0000 C   0  0  0  0  0  0  0  0  0  0  0  0
    0.1196    8.1983    0.0000 C   0  0  0  0  0  0  0  0  0  0  0  0
   -3.8990    0.7455    0.0000 C   0  0  0  0  0  0  0  0  0  0  0  0
   -5.2007    1.4909    0.0000 C   0  0  0  0  0  0  0  0  0  0  0  0
   -6.4972    0.7364    0.0000 N   0  0  0  0  0  0  0  0  0  0  0  0
   -6.4920   -0.7636    0.0000 C   0  0  0  0  0  0  0  0  0  0  0  0
   -5.1903   -1.5091    0.0000 N   0  0  0  0  0  0  0  0  0  0  0  0
   -3.8939   -0.7546    0.0000 C   0  0  0  0  0  0  0  0  0  0  0  0
  1  2  1  0  0  0  0
  2  3  2  0  0  0  0
  3  4  1  0  0  0  0
  4  5  2  0  0  0  0
  5  6  1  0  0  0  0
  6  7  2  0  0  0  0
  7  2  1  0  0  0  0
  5  8  1  0  0  0  0
  8  9  1  0  0  0  0
  9 10  1  0  0  0  0
 10 11  1  0  0  0  0
 11 12  1  0  0  0  0
 12 13  1  0  0  0  0
 13 14  1  0  0  0  0
 14  9  1  0  0  0  0
 12 15  1  0  0  0  0
 15 16  2  0  0  0  0
 15 17  1  0  0  0  0
 17 18  1  0  0  0  0
 18 19  1  0  0  0  0
 19 17  1  0  0  0  0
  8 20  1  0  0  0  0
 20 21  2  0  0  0  0
 21 22  1  0  0  0  0
 22 23  2  0  0  0  0
 23 24  1  0  0  0  0
 24 25  2  0  0  0  0
 25 20  1  0  0  0  0
M  END
>  <Other ID>
EPL-BS0358

>  <Source>
Epichem

>  <% growth M.myc at 100 uM>
74.68

>  <% growth M.myc at 25 uM>
90.84

>  <M. Myc IC50>


>  <M. Myc IC90>


>  <MIC50>


$$$$
Chemistry 83
  StarDrop          2D                              

 30 33  0  0  0  0  0  0  0  0999 V2000
    2.3383   -1.3500    0.0000 Cl  0  0  0  0  0  0  0  0  0  0  0  0
    1.2990   -0.7500    0.0000 C   0  0  0  0  0  0  0  0  0  0  0  0
    1.2990    0.7500    0.0000 C   0  0  0  0  0  0  0  0  0  0  0  0
    0.0000    1.5000    0.0000 C   0  0  0  0  0  0  0  0  0  0  0  0
   -1.2990    0.7500    0.0000 C   0  0  0  0  0  0  0  0  0  0  0  0
   -1.2990   -0.7500    0.0000 C   0  0  0  0  0  0  0  0  0  0  0  0
    0.0000   -1.5000    0.0000 C   0  0  0  0  0  0  0  0  0  0  0  0
   -2.6003    1.4977    0.0000 C   0  0  0  0  0  0  0  0  0  0  0  0
   -2.6030    2.9985    0.0000 N   0  0  0  0  0  0  0  0  0  0  0  0
   -3.9023    3.7481    0.0000 C   0  0  0  0  0  0  0  0  0  0  0  0
   -3.9029    5.2481    0.0000 C   0  0  0  0  0  0  0  0  0  0  0  0
   -2.6041    5.9986    0.0000 N   0  0  0  0  0  0  0  0  0  0  0  0
   -1.3048    5.2491    0.0000 C   0  0  0  0  0  0  0  0  0  0  0  0
   -1.3042    3.7491    0.0000 C   0  0  0  0  0  0  0  0  0  0  0  0
   -2.6047    7.4994    0.0000 S   0  0  0  0  0  0  0  0  0  0  0  0
   -1.5655    8.0995    0.0000 O   0  0  0  0  0  0  0  0  0  0  0  0
   -2.6046    8.6994    0.0000 O   0  0  0  0  0  0  0  0  0  0  0  0
   -3.9043    8.2502    0.0000 C   0  0  0  0  0  0  0  0  0  0  0  0
   -3.9048    9.7510    0.0000 C   0  0  0  0  0  0  0  0  0  0  0  0
   -5.2026   10.5032    0.0000 C   0  0  0  0  0  0  0  0  0  0  0  0
   -5.2001   12.0032    0.0000 C   0  0  0  0  0  0  0  0  0  0  0  0
   -3.8998   12.7511    0.0000 C   0  0  0  0  0  0  0  0  0  0  0  0
   -2.6020   11.9989    0.0000 C   0  0  0  0  0  0  0  0  0  0  0  0
   -2.6045   10.4989    0.0000 C   0  0  0  0  0  0  0  0  0  0  0  0
   -3.8990    0.7455    0.0000 C   0  0  0  0  0  0  0  0  0  0  0  0
   -5.2007    1.4909    0.0000 C   0  0  0  0  0  0  0  0  0  0  0  0
   -6.4972    0.7364    0.0000 N   0  0  0  0  0  0  0  0  0  0  0  0
   -6.4920   -0.7636    0.0000 C   0  0  0  0  0  0  0  0  0  0  0  0
   -5.1903   -1.5091    0.0000 N   0  0  0  0  0  0  0  0  0  0  0  0
   -3.8939   -0.7546    0.0000 C   0  0  0  0  0  0  0  0  0  0  0  0
  1  2  1  0  0  0  0
  2  3  2  0  0  0  0
  3  4  1  0  0  0  0
  4  5  2  0  0  0  0
  5  6  1  0  0  0  0
  6  7  2  0  0  0  0
  7  2  1  0  0  0  0
  5  8  1  0  0  0  0
  8  9  1  0  0  0  0
  9 10  1  0  0  0  0
 10 11  1  0  0  0  0
 11 12  1  0  0  0  0
 12 13  1  0  0  0  0
 13 14  1  0  0  0  0
 14  9  1  0  0  0  0
 12 15  1  0  0  0  0
 15 16  2  0  0  0  0
 15 17  2  0  0  0  0
 15 18  1  0  0  0  0
 18 19  1  0  0  0  0
 19 20  2  0  0  0  0
 20 21  1  0  0  0  0
 21 22  2  0  0  0  0
 22 23  1  0  0  0  0
 23 24  2  0  0  0  0
 24 19  1  0  0  0  0
  8 25  1  0  0  0  0
 25 26  2  0  0  0  0
 26 27  1  0  0  0  0
 27 28  2  0  0  0  0
 28 29  1  0  0  0  0
 29 30  2  0  0  0  0
 30 25  1  0  0  0  0
M  END
>  <Other ID>
EPL-BS0361

>  <Source>
Epichem

>  <% growth M.myc at 100 uM>
47.44

>  <% growth M.myc at 25 uM>
68.66

>  <M. Myc IC50>


>  <M. Myc IC90>


>  <MIC50>


$$$$
Chemistry 84
  StarDrop          2D                              

 30 33  0  0  0  0  0  0  0  0999 V2000
    2.3383   -1.3500    0.0000 Cl  0  0  0  0  0  0  0  0  0  0  0  0
    1.2990   -0.7500    0.0000 C   0  0  0  0  0  0  0  0  0  0  0  0
    1.2990    0.7500    0.0000 C   0  0  0  0  0  0  0  0  0  0  0  0
    0.0000    1.5000    0.0000 C   0  0  0  0  0  0  0  0  0  0  0  0
   -1.2990    0.7500    0.0000 C   0  0  0  0  0  0  0  0  0  0  0  0
   -1.2990   -0.7500    0.0000 C   0  0  0  0  0  0  0  0  0  0  0  0
    0.0000   -1.5000    0.0000 C   0  0  0  0  0  0  0  0  0  0  0  0
   -2.6003    1.4977    0.0000 C   0  0  0  0  0  0  0  0  0  0  0  0
   -2.6030    2.9985    0.0000 N   0  0  0  0  0  0  0  0  0  0  0  0
   -3.9023    3.7481    0.0000 C   0  0  0  0  0  0  0  0  0  0  0  0
   -3.9029    5.2481    0.0000 C   0  0  0  0  0  0  0  0  0  0  0  0
   -2.6041    5.9986    0.0000 N   0  0  0  0  0  0  0  0  0  0  0  0
   -1.3048    5.2491    0.0000 C   0  0  0  0  0  0  0  0  0  0  0  0
   -1.3042    3.7491    0.0000 C   0  0  0  0  0  0  0  0  0  0  0  0
   -2.6047    7.4994    0.0000 S   0  0  0  0  0  0  0  0  0  0  0  0
   -1.5655    8.0995    0.0000 O   0  0  0  0  0  0  0  0  0  0  0  0
   -1.5653    6.8997    0.0000 O   0  0  0  0  0  0  0  0  0  0  0  0
   -3.9043    8.2502    0.0000 C   0  0  0  0  0  0  0  0  0  0  0  0
   -5.2035    7.5005    0.0000 C   0  0  0  0  0  0  0  0  0  0  0  0
   -6.5023    8.2508    0.0000 C   0  0  0  0  0  0  0  0  0  0  0  0
   -6.5020    9.7508    0.0000 C   0  0  0  0  0  0  0  0  0  0  0  0
   -7.5410   10.3511    0.0000 Cl  0  0  0  0  0  0  0  0  0  0  0  0
   -5.2027   10.5005    0.0000 C   0  0  0  0  0  0  0  0  0  0  0  0
   -3.9039    9.7502    0.0000 C   0  0  0  0  0  0  0  0  0  0  0  0
   -3.8990    0.7455    0.0000 C   0  0  0  0  0  0  0  0  0  0  0  0
   -5.2007    1.4909    0.0000 C   0  0  0  0  0  0  0  0  0  0  0  0
   -6.4972    0.7364    0.0000 N   0  0  0  0  0  0  0  0  0  0  0  0
   -6.4920   -0.7636    0.0000 C   0  0  0  0  0  0  0  0  0  0  0  0
   -5.1903   -1.5091    0.0000 N   0  0  0  0  0  0  0  0  0  0  0  0
   -3.8939   -0.7546    0.0000 C   0  0  0  0  0  0  0  0  0  0  0  0
  1  2  1  0  0  0  0
  2  3  2  0  0  0  0
  3  4  1  0  0  0  0
  4  5  2  0  0  0  0
  5  6  1  0  0  0  0
  6  7  2  0  0  0  0
  7  2  1  0  0  0  0
  5  8  1  0  0  0  0
  8  9  1  0  0  0  0
  9 10  1  0  0  0  0
 10 11  1  0  0  0  0
 11 12  1  0  0  0  0
 12 13  1  0  0  0  0
 13 14  1  0  0  0  0
 14  9  1  0  0  0  0
 12 15  1  0  0  0  0
 15 16  2  0  0  0  0
 15 17  2  0  0  0  0
 15 18  1  0  0  0  0
 18 19  2  0  0  0  0
 19 20  1  0  0  0  0
 20 21  2  0  0  0  0
 21 22  1  0  0  0  0
 21 23  1  0  0  0  0
 23 24  2  0  0  0  0
 24 18  1  0  0  0  0
  8 25  1  0  0  0  0
 25 26  2  0  0  0  0
 26 27  1  0  0  0  0
 27 28  2  0  0  0  0
 28 29  1  0  0  0  0
 29 30  2  0  0  0  0
 30 25  1  0  0  0  0
M  END
>  <Other ID>
EPL-BS0362

>  <Source>
Epichem

>  <% growth M.myc at 100 uM>
83.19

>  <% growth M.myc at 25 uM>
85.78

>  <M. Myc IC50>


>  <M. Myc IC90>


>  <MIC50>


$$$$
Chemistry 99
  StarDrop          2D                              

 26 29  0  0  0  0  0  0  0  0999 V2000
    2.3383   -1.3500    0.0000 F   0  0  0  0  0  0  0  0  0  0  0  0
    1.2990   -0.7500    0.0000 C   0  0  0  0  0  0  0  0  0  0  0  0
    1.2990    0.7500    0.0000 C   0  0  0  0  0  0  0  0  0  0  0  0
    0.0000    1.5000    0.0000 C   0  0  0  0  0  0  0  0  0  0  0  0
    0.0000    2.7000    0.0000 Cl  0  0  0  0  0  0  0  0  0  0  0  0
   -1.2990    0.7500    0.0000 C   0  0  0  0  0  0  0  0  0  0  0  0
   -1.2990   -0.7500    0.0000 C   0  0  0  0  0  0  0  0  0  0  0  0
    0.0000   -1.5000    0.0000 C   0  0  0  0  0  0  0  0  0  0  0  0
   -0.0031   -3.0008    0.0000 C   0  0  0  0  0  0  0  0  0  0  0  0
    1.2953   -3.7535    0.0000 N   0  0  0  0  0  0  0  0  0  0  0  0
    1.2948   -5.2535    0.0000 C   0  0  0  0  0  0  0  0  0  0  0  0
    2.5936   -6.0040    0.0000 C   0  0  0  0  0  0  0  0  0  0  0  0
    3.8929   -5.2545    0.0000 N   0  0  0  0  0  0  0  0  0  0  0  0
    3.8935   -3.7545    0.0000 C   0  0  0  0  0  0  0  0  0  0  0  0
    2.5947   -3.0040    0.0000 C   0  0  0  0  0  0  0  0  0  0  0  0
    5.1939   -6.0027    0.0000 C   0  0  0  0  0  0  0  0  0  0  0  0
    5.1956   -7.2027    0.0000 O   0  0  0  0  0  0  0  0  0  0  0  0
    6.4929   -5.2510    0.0000 C   0  0  0  0  0  0  0  0  0  0  0  0
    7.9139   -5.2922    0.0000 C   0  0  0  0  0  0  0  0  0  0  0  0
    7.1598   -3.9955    0.0000 C   0  0  0  0  0  0  0  0  0  0  0  0
   -1.3039   -3.7494    0.0000 C   0  0  0  0  0  0  0  0  0  0  0  0
   -1.3092   -5.2494    0.0000 C   0  0  0  0  0  0  0  0  0  0  0  0
   -2.6108   -5.9949    0.0000 N   0  0  0  0  0  0  0  0  0  0  0  0
   -3.9072   -5.2404    0.0000 C   0  0  0  0  0  0  0  0  0  0  0  0
   -3.9020   -3.7404    0.0000 N   0  0  0  0  0  0  0  0  0  0  0  0
   -2.6004   -2.9949    0.0000 C   0  0  0  0  0  0  0  0  0  0  0  0
  1  2  1  0  0  0  0
  2  3  2  0  0  0  0
  3  4  1  0  0  0  0
  4  5  1  0  0  0  0
  4  6  2  0  0  0  0
  6  7  1  0  0  0  0
  7  8  2  0  0  0  0
  8  2  1  0  0  0  0
  8  9  1  0  0  0  0
  9 10  1  0  0  0  0
 10 11  1  0  0  0  0
 11 12  1  0  0  0  0
 12 13  1  0  0  0  0
 13 14  1  0  0  0  0
 14 15  1  0  0  0  0
 15 10  1  0  0  0  0
 13 16  1  0  0  0  0
 16 17  2  0  0  0  0
 16 18  1  0  0  0  0
 18 19  1  0  0  0  0
 19 20  1  0  0  0  0
 20 18  1  0  0  0  0
  9 21  1  0  0  0  0
 21 22  2  0  0  0  0
 22 23  1  0  0  0  0
 23 24  2  0  0  0  0
 24 25  1  0  0  0  0
 25 26  2  0  0  0  0
 26 21  1  0  0  0  0
M  END
>  <Other ID>
EPL-BS0603

>  <Source>
Epichem

>  <% growth M.myc at 100 uM>
73.94

>  <% growth M.myc at 25 uM>
89.3

>  <M. Myc IC50>


>  <M. Myc IC90>


>  <MIC50>


$$$$
Chemistry 101
  StarDrop          2D                              

 30 33  0  0  0  0  0  0  0  0999 V2000
    2.3383   -1.3500    0.0000 F   0  0  0  0  0  0  0  0  0  0  0  0
    1.2990   -0.7500    0.0000 C   0  0  0  0  0  0  0  0  0  0  0  0
    1.2990    0.7500    0.0000 C   0  0  0  0  0  0  0  0  0  0  0  0
    0.0000    1.5000    0.0000 C   0  0  0  0  0  0  0  0  0  0  0  0
   -1.2990    0.7500    0.0000 C   0  0  0  0  0  0  0  0  0  0  0  0
   -1.2990   -0.7500    0.0000 C   0  0  0  0  0  0  0  0  0  0  0  0
    0.0000   -1.5000    0.0000 C   0  0  0  0  0  0  0  0  0  0  0  0
   -0.0031   -3.0008    0.0000 C   0  0  0  0  0  0  0  0  0  0  0  0
    1.2953   -3.7535    0.0000 N   0  0  0  0  0  0  0  0  0  0  0  0
    1.2948   -5.2535    0.0000 C   0  0  0  0  0  0  0  0  0  0  0  0
    2.5936   -6.0040    0.0000 C   0  0  0  0  0  0  0  0  0  0  0  0
    3.8929   -5.2545    0.0000 N   0  0  0  0  0  0  0  0  0  0  0  0
    3.8935   -3.7545    0.0000 C   0  0  0  0  0  0  0  0  0  0  0  0
    2.5947   -3.0040    0.0000 C   0  0  0  0  0  0  0  0  0  0  0  0
    5.1939   -6.0027    0.0000 C   0  0  0  0  0  0  0  0  0  0  0  0
    5.1956   -7.2027    0.0000 O   0  0  0  0  0  0  0  0  0  0  0  0
    6.4929   -5.2510    0.0000 N   0  0  0  0  0  0  0  0  0  0  0  0
    7.7939   -5.9992    0.0000 C   0  0  0  0  0  0  0  0  0  0  0  0
    9.2148   -5.9541    0.0000 C   0  0  0  0  0  0  0  0  0  0  0  0
    8.4642   -7.2528    0.0000 C   0  0  0  0  0  0  0  0  0  0  0  0
   -1.3039   -3.7494    0.0000 C   0  0  0  0  0  0  0  0  0  0  0  0
   -1.3092   -5.2494    0.0000 C   0  0  0  0  0  0  0  0  0  0  0  0
   -2.6108   -5.9949    0.0000 N   0  0  0  0  0  0  0  0  0  0  0  0
   -3.9072   -5.2404    0.0000 C   0  0  0  0  0  0  0  0  0  0  0  0
   -3.9020   -3.7404    0.0000 N   0  0  0  0  0  0  0  0  0  0  0  0
   -2.6004   -2.9949    0.0000 C   0  0  0  0  0  0  0  0  0  0  0  0
    0.0000    3.0008    0.0000 C   0  0  0  0  0  0  0  0  0  0  0  0
    1.0388    3.6015    0.0000 F   0  0  0  0  0  0  0  0  0  0  0  0
   -1.0394    3.6005    0.0000 F   0  0  0  0  0  0  0  0  0  0  0  0
   -0.0006    4.2008    0.0000 F   0  0  0  0  0  0  0  0  0  0  0  0
  1  2  1  0  0  0  0
  2  3  2  0  0  0  0
  3  4  1  0  0  0  0
  4  5  2  0  0  0  0
  5  6  1  0  0  0  0
  6  7  2  0  0  0  0
  7  2  1  0  0  0  0
  7  8  1  0  0  0  0
  8  9  1  0  0  0  0
  9 10  1  0  0  0  0
 10 11  1  0  0  0  0
 11 12  1  0  0  0  0
 12 13  1  0  0  0  0
 13 14  1  0  0  0  0
 14  9  1  0  0  0  0
 12 15  1  0  0  0  0
 15 16  2  0  0  0  0
 15 17  1  0  0  0  0
 17 18  1  0  0  0  0
 18 19  1  0  0  0  0
 19 20  1  0  0  0  0
 20 18  1  0  0  0  0
  8 21  1  0  0  0  0
 21 22  2  0  0  0  0
 22 23  1  0  0  0  0
 23 24  2  0  0  0  0
 24 25  1  0  0  0  0
 25 26  2  0  0  0  0
 26 21  1  0  0  0  0
  4 27  1  0  0  0  0
 27 28  1  0  0  0  0
 27 29  1  0  0  0  0
 27 30  1  0  0  0  0
M  END
>  <Other ID>
EPL-BS0642

>  <Source>
Epichem

>  <% growth M.myc at 100 uM>
59.6

>  <% growth M.myc at 25 uM>
93.05

>  <M. Myc IC50>


>  <M. Myc IC90>


>  <MIC50>


$$$$
