Chemistry 30
  StarDrop          2D                              

 32 35  0  0  0  0  0  0  0  0999 V2000
    3.6384   -0.9011    0.0000 F   0  0  0  0  0  0  0  0  0  0  0  0
    2.5988   -1.5004    0.0000 C   0  0  0  0  0  0  0  0  0  0  0  0
    2.5984   -2.7004    0.0000 F   0  0  0  0  0  0  0  0  0  0  0  0
    3.6377   -2.1009    0.0000 F   0  0  0  0  0  0  0  0  0  0  0  0
    1.2990   -0.7500    0.0000 C   0  0  0  0  0  0  0  0  0  0  0  0
    1.2990    0.7500    0.0000 C   0  0  0  0  0  0  0  0  0  0  0  0
    0.0000    1.5000    0.0000 C   0  0  0  0  0  0  0  0  0  0  0  0
   -1.2990    0.7500    0.0000 C   0  0  0  0  0  0  0  0  0  0  0  0
   -1.2990   -0.7500    0.0000 C   0  0  0  0  0  0  0  0  0  0  0  0
    0.0000   -1.5000    0.0000 C   0  0  0  0  0  0  0  0  0  0  0  0
   -2.5987    1.5004    0.0000 N   0  0  0  0  0  0  0  0  0  0  0  0
   -2.6012    3.0004    0.0000 C   0  0  0  0  0  0  0  0  0  0  0  0
   -3.9015    3.7484    0.0000 C   0  0  0  0  0  0  0  0  0  0  0  0
   -5.1993    2.9963    0.0000 N   0  0  0  0  0  0  0  0  0  0  0  0
   -5.1969    1.4963    0.0000 C   0  0  0  0  0  0  0  0  0  0  0  0
   -3.8967    0.7484    0.0000 C   0  0  0  0  0  0  0  0  0  0  0  0
   -6.5018    3.7420    0.0000 C   0  0  0  0  0  0  0  0  0  0  0  0
   -6.5058    4.9420    0.0000 O   0  0  0  0  0  0  0  0  0  0  0  0
   -7.7993    2.9876    0.0000 C   0  0  0  0  0  0  0  0  0  0  0  0
   -9.1017    3.7333    0.0000 C   0  0  0  0  0  0  0  0  0  0  0  0
  -10.3996    2.9813    0.0000 C   0  0  0  0  0  0  0  0  0  0  0  0
  -11.6999    3.7292    0.0000 C   0  0  0  0  0  0  0  0  0  0  0  0
  -11.7023    5.2292    0.0000 C   0  0  0  0  0  0  0  0  0  0  0  0
  -12.7425    5.8275    0.0000 Cl  0  0  0  0  0  0  0  0  0  0  0  0
  -10.4045    5.9813    0.0000 C   0  0  0  0  0  0  0  0  0  0  0  0
   -9.1042    5.2334    0.0000 C   0  0  0  0  0  0  0  0  0  0  0  0
   -7.7943    1.4869    0.0000 C   0  0  0  0  0  0  0  0  0  0  0  0
   -9.0898    0.7307    0.0000 C   0  0  0  0  0  0  0  0  0  0  0  0
   -9.0827   -0.7693    0.0000 C   0  0  0  0  0  0  0  0  0  0  0  0
   -7.7802   -1.5132    0.0000 C   0  0  0  0  0  0  0  0  0  0  0  0
   -6.4847   -0.7571    0.0000 N   0  0  0  0  0  0  0  0  0  0  0  0
   -6.4917    0.7429    0.0000 C   0  0  0  0  0  0  0  0  0  0  0  0
  1  2  1  0  0  0  0
  2  3  1  0  0  0  0
  2  4  1  0  0  0  0
  2  5  1  0  0  0  0
  5  6  2  0  0  0  0
  6  7  1  0  0  0  0
  7  8  2  0  0  0  0
  8  9  1  0  0  0  0
  9 10  2  0  0  0  0
 10  5  1  0  0  0  0
  8 11  1  0  0  0  0
 11 12  1  0  0  0  0
 12 13  1  0  0  0  0
 13 14  1  0  0  0  0
 14 15  1  0  0  0  0
 15 16  1  0  0  0  0
 16 11  1  0  0  0  0
 14 17  1  0  0  0  0
 17 18  2  0  0  0  0
 17 19  1  0  0  0  0
 19 20  1  0  0  0  0
 20 21  2  0  0  0  0
 21 22  1  0  0  0  0
 22 23  2  0  0  0  0
 23 24  1  0  0  0  0
 23 25  1  0  0  0  0
 25 26  2  0  0  0  0
 26 20  1  0  0  0  0
 19 27  1  0  0  0  0
 27 28  2  0  0  0  0
 28 29  1  0  0  0  0
 29 30  2  0  0  0  0
 30 31  1  0  0  0  0
 31 32  2  0  0  0  0
 32 27  1  0  0  0  0
M  END
>  <Other ID>
EPL-BS1025

>  <sub series>
amidopiperazines

>  <Source>
Epichem

>  <% growth M.myc at 100 uM>
0.7406

>  <% growth M.myc at 25 uM>
-1.52

>  <M. Myc IC50>
0.63

>  <M. Myc IC90>
0.94

>  <MIC50>
4

$$$$
Chemistry 32
  StarDrop          2D                              

 32 35  0  0  0  0  0  0  0  0999 V2000
    3.6384   -0.9011    0.0000 F   0  0  0  0  0  0  0  0  0  0  0  0
    2.5988   -1.5004    0.0000 C   0  0  0  0  0  0  0  0  0  0  0  0
    2.5984   -2.7004    0.0000 F   0  0  0  0  0  0  0  0  0  0  0  0
    3.6377   -2.1009    0.0000 F   0  0  0  0  0  0  0  0  0  0  0  0
    1.2990   -0.7500    0.0000 C   0  0  0  0  0  0  0  0  0  0  0  0
    1.2990    0.7500    0.0000 C   0  0  0  0  0  0  0  0  0  0  0  0
    0.0000    1.5000    0.0000 C   0  0  0  0  0  0  0  0  0  0  0  0
   -1.2990    0.7500    0.0000 C   0  0  0  0  0  0  0  0  0  0  0  0
   -1.2990   -0.7500    0.0000 C   0  0  0  0  0  0  0  0  0  0  0  0
    0.0000   -1.5000    0.0000 C   0  0  0  0  0  0  0  0  0  0  0  0
   -2.5987    1.5004    0.0000 N   0  0  0  0  0  0  0  0  0  0  0  0
   -2.6012    3.0004    0.0000 C   0  0  0  0  0  0  0  0  0  0  0  0
   -3.9015    3.7484    0.0000 C   0  0  0  0  0  0  0  0  0  0  0  0
   -5.1993    2.9963    0.0000 N   0  0  0  0  0  0  0  0  0  0  0  0
   -5.1969    1.4963    0.0000 C   0  0  0  0  0  0  0  0  0  0  0  0
   -3.8967    0.7484    0.0000 C   0  0  0  0  0  0  0  0  0  0  0  0
   -6.5018    3.7420    0.0000 C   0  0  0  0  0  0  0  0  0  0  0  0
   -6.5058    4.9420    0.0000 O   0  0  0  0  0  0  0  0  0  0  0  0
   -7.7993    2.9876    0.0000 C   0  0  0  0  0  0  0  0  0  0  0  0
   -9.1017    3.7333    0.0000 C   0  0  0  0  0  0  0  0  0  0  0  0
  -10.3996    2.9813    0.0000 C   0  0  0  0  0  0  0  0  0  0  0  0
  -11.6999    3.7292    0.0000 C   0  0  0  0  0  0  0  0  0  0  0  0
  -11.7023    5.2292    0.0000 C   0  0  0  0  0  0  0  0  0  0  0  0
  -12.7425    5.8275    0.0000 Cl  0  0  0  0  0  0  0  0  0  0  0  0
  -10.4045    5.9813    0.0000 C   0  0  0  0  0  0  0  0  0  0  0  0
   -9.1042    5.2334    0.0000 C   0  0  0  0  0  0  0  0  0  0  0  0
   -7.7943    1.4869    0.0000 C   0  0  0  0  0  0  0  0  0  0  0  0
   -9.0898    0.7307    0.0000 C   0  0  0  0  0  0  0  0  0  0  0  0
   -9.0827   -0.7693    0.0000 C   0  0  0  0  0  0  0  0  0  0  0  0
   -7.7802   -1.5132    0.0000 C   0  0  0  0  0  0  0  0  0  0  0  0
   -6.4847   -0.7571    0.0000 N   0  0  0  0  0  0  0  0  0  0  0  0
   -6.4917    0.7429    0.0000 C   0  0  0  0  0  0  0  0  0  0  0  0
  1  2  1  0  0  0  0
  2  3  1  0  0  0  0
  2  4  1  0  0  0  0
  2  5  1  0  0  0  0
  5  6  2  0  0  0  0
  6  7  1  0  0  0  0
  7  8  2  0  0  0  0
  8  9  1  0  0  0  0
  9 10  2  0  0  0  0
 10  5  1  0  0  0  0
  8 11  1  0  0  0  0
 11 12  1  0  0  0  0
 12 13  1  0  0  0  0
 13 14  1  0  0  0  0
 14 15  1  0  0  0  0
 15 16  1  0  0  0  0
 16 11  1  0  0  0  0
 14 17  1  0  0  0  0
 17 18  2  0  0  0  0
 17 19  1  0  0  0  0
 19 20  1  0  0  0  0
 20 21  2  0  0  0  0
 21 22  1  0  0  0  0
 22 23  2  0  0  0  0
 23 24  1  0  0  0  0
 23 25  1  0  0  0  0
 25 26  2  0  0  0  0
 26 20  1  0  0  0  0
 19 27  1  0  0  0  0
 27 28  2  0  0  0  0
 28 29  1  0  0  0  0
 29 30  2  0  0  0  0
 30 31  1  0  0  0  0
 31 32  2  0  0  0  0
 32 27  1  0  0  0  0
M  END
>  <Other ID>
EPL-BS1246, MMV689244

>  <sub series>
amidopiperazines

>  <Source>
Epichem

>  <% growth M.myc at 100 uM>
-4.031

>  <% growth M.myc at 25 uM>
0.5443

>  <M. Myc IC50>
1.53

>  <M. Myc IC90>
2.89

>  <MIC50>
4

$$$$
Chemistry 33
  StarDrop          2D                              

 33 36  0  0  0  0  0  0  0  0999 V2000
    2.5984   -2.7004    0.0000 C   0  0  0  0  0  0  0  0  0  0  0  0
    2.5988   -1.5004    0.0000 S   0  0  0  0  0  0  0  0  0  0  0  0
    3.6384   -0.9011    0.0000 O   0  0  0  0  0  0  0  0  0  0  0  0
    3.6377   -2.1009    0.0000 O   0  0  0  0  0  0  0  0  0  0  0  0
    1.2990   -0.7500    0.0000 C   0  0  0  0  0  0  0  0  0  0  0  0
    1.2990    0.7500    0.0000 C   0  0  0  0  0  0  0  0  0  0  0  0
    0.0000    1.5000    0.0000 C   0  0  0  0  0  0  0  0  0  0  0  0
   -1.2990    0.7500    0.0000 C   0  0  0  0  0  0  0  0  0  0  0  0
   -1.2990   -0.7500    0.0000 C   0  0  0  0  0  0  0  0  0  0  0  0
    0.0000   -1.5000    0.0000 C   0  0  0  0  0  0  0  0  0  0  0  0
   -2.5987    1.5004    0.0000 N   0  0  0  0  0  0  0  0  0  0  0  0
   -2.6012    3.0004    0.0000 C   0  0  0  0  0  0  0  0  0  0  0  0
   -3.9015    3.7484    0.0000 C   0  0  0  0  0  0  0  0  0  0  0  0
   -5.1993    2.9963    0.0000 N   0  0  0  0  0  0  0  0  0  0  0  0
   -5.1969    1.4963    0.0000 C   0  0  0  0  0  0  0  0  0  0  0  0
   -3.8967    0.7484    0.0000 C   0  0  0  0  0  0  0  0  0  0  0  0
   -6.5018    3.7420    0.0000 C   0  0  0  0  0  0  0  0  0  0  0  0
   -6.5058    4.9420    0.0000 O   0  0  0  0  0  0  0  0  0  0  0  0
   -7.7993    2.9876    0.0000 C   0  0  0  0  0  0  0  0  0  0  0  0
   -9.1017    3.7333    0.0000 C   0  0  0  0  0  0  0  0  0  0  0  0
  -10.3996    2.9813    0.0000 C   0  0  0  0  0  0  0  0  0  0  0  0
  -11.6999    3.7292    0.0000 C   0  0  0  0  0  0  0  0  0  0  0  0
  -11.7023    5.2292    0.0000 C   0  0  0  0  0  0  0  0  0  0  0  0
  -10.4045    5.9813    0.0000 C   0  0  0  0  0  0  0  0  0  0  0  0
   -9.1042    5.2334    0.0000 C   0  0  0  0  0  0  0  0  0  0  0  0
  -13.0033    5.9775    0.0000 C   0  0  0  0  0  0  0  0  0  0  0  0
  -14.0435    6.5758    0.0000 N   0  0  0  0  0  0  0  0  0  0  0  0
   -7.7943    1.4869    0.0000 C   0  0  0  0  0  0  0  0  0  0  0  0
   -9.0898    0.7307    0.0000 C   0  0  0  0  0  0  0  0  0  0  0  0
   -9.0827   -0.7693    0.0000 C   0  0  0  0  0  0  0  0  0  0  0  0
   -7.7802   -1.5132    0.0000 C   0  0  0  0  0  0  0  0  0  0  0  0
   -6.4847   -0.7571    0.0000 N   0  0  0  0  0  0  0  0  0  0  0  0
   -6.4917    0.7429    0.0000 C   0  0  0  0  0  0  0  0  0  0  0  0
  1  2  1  0  0  0  0
  2  3  2  0  0  0  0
  2  4  2  0  0  0  0
  2  5  1  0  0  0  0
  5  6  2  0  0  0  0
  6  7  1  0  0  0  0
  7  8  2  0  0  0  0
  8  9  1  0  0  0  0
  9 10  2  0  0  0  0
 10  5  1  0  0  0  0
  8 11  1  0  0  0  0
 11 12  1  0  0  0  0
 12 13  1  0  0  0  0
 13 14  1  0  0  0  0
 14 15  1  0  0  0  0
 15 16  1  0  0  0  0
 16 11  1  0  0  0  0
 14 17  1  0  0  0  0
 17 18  2  0  0  0  0
 17 19  1  0  0  0  0
 19 20  1  0  0  0  0
 20 21  2  0  0  0  0
 21 22  1  0  0  0  0
 22 23  2  0  0  0  0
 23 24  1  0  0  0  0
 24 25  2  0  0  0  0
 25 20  1  0  0  0  0
 23 26  1  0  0  0  0
 26 27  3  0  0  0  0
 19 28  1  0  0  0  0
 28 29  2  0  0  0  0
 29 30  1  0  0  0  0
 30 31  2  0  0  0  0
 31 32  1  0  0  0  0
 32 33  2  0  0  0  0
 33 28  1  0  0  0  0
M  END
>  <Other ID>
EPL-BS1296

>  <sub series>
amidopiperazines

>  <Source>
Epichem

>  <% growth M.myc at 100 uM>
63.21

>  <% growth M.myc at 25 uM>
80.39

>  <M. Myc IC50>


>  <M. Myc IC90>


>  <MIC50>


$$$$
Chemistry 34
  StarDrop          2D                              

 30 32  0  0  0  0  0  0  0  0999 V2000
    3.8916   -4.9570    0.0000 C   0  0  0  0  0  0  0  0  0  0  0  0
    3.8933   -3.7570    0.0000 C   0  0  0  0  0  0  0  0  0  0  0  0
    4.9336   -3.1588    0.0000 C   0  0  0  0  0  0  0  0  0  0  0  0
    4.9316   -4.3586    0.0000 C   0  0  0  0  0  0  0  0  0  0  0  0
    2.5951   -3.0039    0.0000 O   0  0  0  0  0  0  0  0  0  0  0  0
    2.5973   -1.5031    0.0000 C   0  0  0  0  0  0  0  0  0  0  0  0
    3.6375   -0.9049    0.0000 O   0  0  0  0  0  0  0  0  0  0  0  0
    1.2990   -0.7500    0.0000 N   0  0  0  0  0  0  0  0  0  0  0  0
    1.2990    0.7500    0.0000 C   0  0  0  0  0  0  0  0  0  0  0  0
    0.0000    1.5000    0.0000 C   0  0  0  0  0  0  0  0  0  0  0  0
   -1.2990    0.7500    0.0000 N   0  0  0  0  0  0  0  0  0  0  0  0
   -1.2990   -0.7500    0.0000 C   0  0  0  0  0  0  0  0  0  0  0  0
    0.0000   -1.5000    0.0000 C   0  0  0  0  0  0  0  0  0  0  0  0
   -2.6003    1.4977    0.0000 C   0  0  0  0  0  0  0  0  0  0  0  0
   -2.6024    2.6977    0.0000 O   0  0  0  0  0  0  0  0  0  0  0  0
   -3.8990    0.7455    0.0000 C   0  0  0  0  0  0  0  0  0  0  0  0
   -5.2003    1.4932    0.0000 C   0  0  0  0  0  0  0  0  0  0  0  0
   -6.4994    0.7432    0.0000 C   0  0  0  0  0  0  0  0  0  0  0  0
   -7.7985    1.4932    0.0000 C   0  0  0  0  0  0  0  0  0  0  0  0
   -7.7985    2.9932    0.0000 C   0  0  0  0  0  0  0  0  0  0  0  0
   -6.4995    3.7432    0.0000 C   0  0  0  0  0  0  0  0  0  0  0  0
   -5.2004    2.9933    0.0000 C   0  0  0  0  0  0  0  0  0  0  0  0
   -9.0983    3.7436    0.0000 C   0  0  0  0  0  0  0  0  0  0  0  0
  -10.1375    4.3435    0.0000 N   0  0  0  0  0  0  0  0  0  0  0  0
   -3.8964   -0.7553    0.0000 C   0  0  0  0  0  0  0  0  0  0  0  0
   -5.1931   -1.5094    0.0000 C   0  0  0  0  0  0  0  0  0  0  0  0
   -5.1885   -3.0094    0.0000 C   0  0  0  0  0  0  0  0  0  0  0  0
   -3.8871   -3.7554    0.0000 C   0  0  0  0  0  0  0  0  0  0  0  0
   -2.5904   -3.0014    0.0000 N   0  0  0  0  0  0  0  0  0  0  0  0
   -2.5951   -1.5014    0.0000 C   0  0  0  0  0  0  0  0  0  0  0  0
  1  2  1  0  0  0  0
  2  3  1  0  0  0  0
  2  4  1  0  0  0  0
  2  5  1  0  0  0  0
  5  6  1  0  0  0  0
  6  7  2  0  0  0  0
  6  8  1  0  0  0  0
  8  9  1  0  0  0  0
  9 10  1  0  0  0  0
 10 11  1  0  0  0  0
 11 12  1  0  0  0  0
 12 13  1  0  0  0  0
 13  8  1  0  0  0  0
 11 14  1  0  0  0  0
 14 15  2  0  0  0  0
 14 16  1  0  0  0  0
 16 17  1  0  0  0  0
 17 18  2  0  0  0  0
 18 19  1  0  0  0  0
 19 20  2  0  0  0  0
 20 21  1  0  0  0  0
 21 22  2  0  0  0  0
 22 17  1  0  0  0  0
 20 23  1  0  0  0  0
 23 24  3  0  0  0  0
 16 25  1  0  0  0  0
 25 26  2  0  0  0  0
 26 27  1  0  0  0  0
 27 28  2  0  0  0  0
 28 29  1  0  0  0  0
 29 30  2  0  0  0  0
 30 25  1  0  0  0  0
M  END
>  <Other ID>
EPL-BS1338

>  <sub series>
amidopiperazines

>  <Source>
Epichem

>  <% growth M.myc at 100 uM>
32.03

>  <% growth M.myc at 25 uM>
86.67

>  <M. Myc IC50>


>  <M. Myc IC90>


>  <MIC50>


$$$$
Chemistry 35
  StarDrop          2D                              

 31 34  0  0  0  0  0  0  0  0999 V2000
    2.3383   -1.3500    0.0000 Cl  0  0  0  0  0  0  0  0  0  0  0  0
    1.2990   -0.7500    0.0000 C   0  0  0  0  0  0  0  0  0  0  0  0
    1.2990    0.7500    0.0000 C   0  0  0  0  0  0  0  0  0  0  0  0
    0.0000    1.5000    0.0000 C   0  0  0  0  0  0  0  0  0  0  0  0
   -1.2990    0.7500    0.0000 C   0  0  0  0  0  0  0  0  0  0  0  0
   -1.2990   -0.7500    0.0000 C   0  0  0  0  0  0  0  0  0  0  0  0
    0.0000   -1.5000    0.0000 C   0  0  0  0  0  0  0  0  0  0  0  0
   -2.6003    1.4977    0.0000 C   0  0  0  0  0  0  0  0  0  0  0  0
   -3.8990    0.7455    0.0000 C   0  0  0  0  0  0  0  0  0  0  0  0
   -3.8969   -0.4545    0.0000 O   0  0  0  0  0  0  0  0  0  0  0  0
   -5.2003    1.4932    0.0000 N   0  0  0  0  0  0  0  0  0  0  0  0
   -6.4994    0.7432    0.0000 C   0  0  0  0  0  0  0  0  0  0  0  0
   -7.7985    1.4932    0.0000 C   0  0  0  0  0  0  0  0  0  0  0  0
   -7.7985    2.9932    0.0000 N   0  0  0  0  0  0  0  0  0  0  0  0
   -6.4995    3.7432    0.0000 C   0  0  0  0  0  0  0  0  0  0  0  0
   -5.2004    2.9933    0.0000 C   0  0  0  0  0  0  0  0  0  0  0  0
   -9.0967    3.7462    0.0000 C   0  0  0  0  0  0  0  0  0  0  0  0
  -10.1370    3.1480    0.0000 O   0  0  0  0  0  0  0  0  0  0  0  0
   -9.0947    5.2471    0.0000 C   0  0  0  0  0  0  0  0  0  0  0  0
  -10.3911    6.0016    0.0000 C   0  0  0  0  0  0  0  0  0  0  0  0
  -10.3859    7.5016    0.0000 C   0  0  0  0  0  0  0  0  0  0  0  0
   -9.0843    8.2471    0.0000 C   0  0  0  0  0  0  0  0  0  0  0  0
   -9.0802    9.4471    0.0000 Cl  0  0  0  0  0  0  0  0  0  0  0  0
   -7.7879    7.4927    0.0000 C   0  0  0  0  0  0  0  0  0  0  0  0
   -7.7930    5.9927    0.0000 C   0  0  0  0  0  0  0  0  0  0  0  0
   -2.6030    2.9985    0.0000 C   0  0  0  0  0  0  0  0  0  0  0  0
   -3.9023    3.7481    0.0000 C   0  0  0  0  0  0  0  0  0  0  0  0
   -3.9029    5.2481    0.0000 C   0  0  0  0  0  0  0  0  0  0  0  0
   -2.6041    5.9986    0.0000 C   0  0  0  0  0  0  0  0  0  0  0  0
   -1.3048    5.2491    0.0000 N   0  0  0  0  0  0  0  0  0  0  0  0
   -1.3042    3.7491    0.0000 C   0  0  0  0  0  0  0  0  0  0  0  0
  1  2  1  0  0  0  0
  2  3  2  0  0  0  0
  3  4  1  0  0  0  0
  4  5  2  0  0  0  0
  5  6  1  0  0  0  0
  6  7  2  0  0  0  0
  7  2  1  0  0  0  0
  5  8  1  0  0  0  0
  8  9  1  0  0  0  0
  9 10  2  0  0  0  0
  9 11  1  0  0  0  0
 11 12  1  0  0  0  0
 12 13  1  0  0  0  0
 13 14  1  0  0  0  0
 14 15  1  0  0  0  0
 15 16  1  0  0  0  0
 16 11  1  0  0  0  0
 14 17  1  0  0  0  0
 17 18  2  0  0  0  0
 17 19  1  0  0  0  0
 19 20  2  0  0  0  0
 20 21  1  0  0  0  0
 21 22  2  0  0  0  0
 22 23  1  0  0  0  0
 22 24  1  0  0  0  0
 24 25  2  0  0  0  0
 25 19  1  0  0  0  0
  8 26  1  0  0  0  0
 26 27  2  0  0  0  0
 27 28  1  0  0  0  0
 28 29  2  0  0  0  0
 29 30  1  0  0  0  0
 30 31  2  0  0  0  0
 31 26  1  0  0  0  0
M  END
>  <Other ID>
EPL-BS1365

>  <sub series>
amidopiperazines

>  <Source>
Epichem

>  <% growth M.myc at 100 uM>
92

>  <% growth M.myc at 25 uM>
69.64

>  <M. Myc IC50>


>  <M. Myc IC90>


>  <MIC50>


$$$$
Chemistry 111
  StarDrop          2D                              

 32 35  0  0  0  0  0  0  0  0999 V2000
    3.6384   -0.9011    0.0000 F   0  0  0  0  0  0  0  0  0  0  0  0
    2.5988   -1.5004    0.0000 C   0  0  0  0  0  0  0  0  0  0  0  0
    2.5984   -2.7004    0.0000 F   0  0  0  0  0  0  0  0  0  0  0  0
    3.6377   -2.1009    0.0000 F   0  0  0  0  0  0  0  0  0  0  0  0
    1.2990   -0.7500    0.0000 C   0  0  0  0  0  0  0  0  0  0  0  0
    1.2990    0.7500    0.0000 C   0  0  0  0  0  0  0  0  0  0  0  0
    0.0000    1.5000    0.0000 C   0  0  0  0  0  0  0  0  0  0  0  0
   -1.2990    0.7500    0.0000 C   0  0  0  0  0  0  0  0  0  0  0  0
   -1.2990   -0.7500    0.0000 C   0  0  0  0  0  0  0  0  0  0  0  0
    0.0000   -1.5000    0.0000 C   0  0  0  0  0  0  0  0  0  0  0  0
   -2.5987    1.5004    0.0000 N   0  0  0  0  0  0  0  0  0  0  0  0
   -2.6012    3.0004    0.0000 C   0  0  0  0  0  0  0  0  0  0  0  0
   -3.9015    3.7484    0.0000 C   0  0  0  0  0  0  0  0  0  0  0  0
   -5.1993    2.9963    0.0000 N   0  0  0  0  0  0  0  0  0  0  0  0
   -5.1969    1.4963    0.0000 C   0  0  0  0  0  0  0  0  0  0  0  0
   -3.8967    0.7484    0.0000 C   0  0  0  0  0  0  0  0  0  0  0  0
   -6.5018    3.7420    0.0000 C   0  0  0  0  0  0  0  0  0  0  0  0
   -6.5058    4.9420    0.0000 O   0  0  0  0  0  0  0  0  0  0  0  0
   -7.7993    2.9876    0.0000 C   0  0  0  0  0  0  0  0  0  0  0  0
   -9.1017    3.7333    0.0000 C   0  0  0  0  0  0  0  0  0  0  0  0
  -10.3996    2.9813    0.0000 C   0  0  0  0  0  0  0  0  0  0  0  0
  -11.6999    3.7292    0.0000 C   0  0  0  0  0  0  0  0  0  0  0  0
  -11.7023    5.2292    0.0000 C   0  0  0  0  0  0  0  0  0  0  0  0
  -12.7425    5.8275    0.0000 Cl  0  0  0  0  0  0  0  0  0  0  0  0
  -10.4045    5.9813    0.0000 C   0  0  0  0  0  0  0  0  0  0  0  0
   -9.1042    5.2334    0.0000 C   0  0  0  0  0  0  0  0  0  0  0  0
   -7.7943    1.4869    0.0000 C   0  0  0  0  0  0  0  0  0  0  0  0
   -9.0898    0.7307    0.0000 C   0  0  0  0  0  0  0  0  0  0  0  0
   -9.0827   -0.7693    0.0000 C   0  0  0  0  0  0  0  0  0  0  0  0
   -7.7802   -1.5132    0.0000 C   0  0  0  0  0  0  0  0  0  0  0  0
   -6.4847   -0.7571    0.0000 N   0  0  0  0  0  0  0  0  0  0  0  0
   -6.4917    0.7429    0.0000 C   0  0  0  0  0  0  0  0  0  0  0  0
  1  2  1  0  0  0  0
  2  3  1  0  0  0  0
  2  4  1  0  0  0  0
  2  5  1  0  0  0  0
  5  6  2  0  0  0  0
  6  7  1  0  0  0  0
  7  8  2  0  0  0  0
  8  9  1  0  0  0  0
  9 10  2  0  0  0  0
 10  5  1  0  0  0  0
  8 11  1  0  0  0  0
 11 12  1  0  0  0  0
 12 13  1  0  0  0  0
 13 14  1  0  0  0  0
 14 15  1  0  0  0  0
 15 16  1  0  0  0  0
 16 11  1  0  0  0  0
 14 17  1  0  0  0  0
 17 18  2  0  0  0  0
 17 19  1  0  0  0  0
 19 20  1  0  0  0  0
 20 21  2  0  0  0  0
 21 22  1  0  0  0  0
 22 23  2  0  0  0  0
 23 24  1  0  0  0  0
 23 25  1  0  0  0  0
 25 26  2  0  0  0  0
 26 20  1  0  0  0  0
 19 27  1  0  0  0  0
 27 28  2  0  0  0  0
 28 29  1  0  0  0  0
 29 30  2  0  0  0  0
 30 31  1  0  0  0  0
 31 32  2  0  0  0  0
 32 27  1  0  0  0  0
M  END
>  <Other ID>
EPL-BS1025

>  <sub series>
amidopiperazines

>  <Source>
Epichem

>  <% growth M.myc at 100 uM>
-10.89

>  <% growth M.myc at 25 uM>
-4.774

>  <M. Myc IC50>


>  <M. Myc IC90>


>  <MIC50>


$$$$
Chemistry 115
  StarDrop          2D                              

 31 34  0  0  0  0  0  0  0  0999 V2000
    2.3383   -1.3500    0.0000 Cl  0  0  0  0  0  0  0  0  0  0  0  0
    1.2990   -0.7500    0.0000 C   0  0  0  0  0  0  0  0  0  0  0  0
    1.2990    0.7500    0.0000 C   0  0  0  0  0  0  0  0  0  0  0  0
    0.0000    1.5000    0.0000 C   0  0  0  0  0  0  0  0  0  0  0  0
   -1.2990    0.7500    0.0000 C   0  0  0  0  0  0  0  0  0  0  0  0
   -1.2990   -0.7500    0.0000 C   0  0  0  0  0  0  0  0  0  0  0  0
    0.0000   -1.5000    0.0000 C   0  0  0  0  0  0  0  0  0  0  0  0
   -2.6003    1.4977    0.0000 C   0  0  0  0  0  0  0  0  0  0  0  0
   -3.8990    0.7455    0.0000 C   0  0  0  0  0  0  0  0  0  0  0  0
   -3.8969   -0.4545    0.0000 O   0  0  0  0  0  0  0  0  0  0  0  0
   -5.2003    1.4932    0.0000 N   0  0  0  0  0  0  0  0  0  0  0  0
   -6.4994    0.7432    0.0000 C   0  0  0  0  0  0  0  0  0  0  0  0
   -7.7985    1.4932    0.0000 C   0  0  0  0  0  0  0  0  0  0  0  0
   -7.7985    2.9932    0.0000 N   0  0  0  0  0  0  0  0  0  0  0  0
   -6.4995    3.7432    0.0000 C   0  0  0  0  0  0  0  0  0  0  0  0
   -5.2004    2.9933    0.0000 C   0  0  0  0  0  0  0  0  0  0  0  0
   -9.0967    3.7462    0.0000 C   0  0  0  0  0  0  0  0  0  0  0  0
  -10.1370    3.1480    0.0000 O   0  0  0  0  0  0  0  0  0  0  0  0
   -9.0947    5.2471    0.0000 C   0  0  0  0  0  0  0  0  0  0  0  0
  -10.3911    6.0016    0.0000 C   0  0  0  0  0  0  0  0  0  0  0  0
  -10.3859    7.5016    0.0000 C   0  0  0  0  0  0  0  0  0  0  0  0
   -9.0843    8.2471    0.0000 C   0  0  0  0  0  0  0  0  0  0  0  0
   -9.0802    9.4471    0.0000 Cl  0  0  0  0  0  0  0  0  0  0  0  0
   -7.7879    7.4927    0.0000 C   0  0  0  0  0  0  0  0  0  0  0  0
   -7.7930    5.9927    0.0000 C   0  0  0  0  0  0  0  0  0  0  0  0
   -2.6030    2.9985    0.0000 C   0  0  0  0  0  0  0  0  0  0  0  0
   -3.9023    3.7481    0.0000 C   0  0  0  0  0  0  0  0  0  0  0  0
   -3.9029    5.2481    0.0000 C   0  0  0  0  0  0  0  0  0  0  0  0
   -2.6041    5.9986    0.0000 C   0  0  0  0  0  0  0  0  0  0  0  0
   -1.3048    5.2491    0.0000 N   0  0  0  0  0  0  0  0  0  0  0  0
   -1.3042    3.7491    0.0000 C   0  0  0  0  0  0  0  0  0  0  0  0
  1  2  1  0  0  0  0
  2  3  2  0  0  0  0
  3  4  1  0  0  0  0
  4  5  2  0  0  0  0
  5  6  1  0  0  0  0
  6  7  2  0  0  0  0
  7  2  1  0  0  0  0
  5  8  1  0  0  0  0
  8  9  1  0  0  0  0
  9 10  2  0  0  0  0
  9 11  1  0  0  0  0
 11 12  1  0  0  0  0
 12 13  1  0  0  0  0
 13 14  1  0  0  0  0
 14 15  1  0  0  0  0
 15 16  1  0  0  0  0
 16 11  1  0  0  0  0
 14 17  1  0  0  0  0
 17 18  2  0  0  0  0
 17 19  1  0  0  0  0
 19 20  2  0  0  0  0
 20 21  1  0  0  0  0
 21 22  2  0  0  0  0
 22 23  1  0  0  0  0
 22 24  1  0  0  0  0
 24 25  2  0  0  0  0
 25 19  1  0  0  0  0
  8 26  1  0  0  0  0
 26 27  2  0  0  0  0
 27 28  1  0  0  0  0
 28 29  2  0  0  0  0
 29 30  1  0  0  0  0
 30 31  2  0  0  0  0
 31 26  1  0  0  0  0
M  END
>  <Other ID>
EPL-BS1365

>  <sub series>
amidopiperazines

>  <Source>
Epichem

>  <% growth M.myc at 100 uM>
79.22

>  <% growth M.myc at 25 uM>
85.27

>  <M. Myc IC50>


>  <M. Myc IC90>


>  <MIC50>


$$$$
Chemistry 116
  StarDrop          2D                              

 27 30  0  0  0  0  0  0  0  0999 V2000
    2.3383   -1.3500    0.0000 Cl  0  0  0  0  0  0  0  0  0  0  0  0
    1.2990   -0.7500    0.0000 C   0  0  0  0  0  0  0  0  0  0  0  0
    1.2990    0.7500    0.0000 C   0  0  0  0  0  0  0  0  0  0  0  0
    0.0000    1.5000    0.0000 C   0  0  0  0  0  0  0  0  0  0  0  0
   -1.2990    0.7500    0.0000 C   0  0  0  0  0  0  0  0  0  0  0  0
   -1.2990   -0.7500    0.0000 C   0  0  0  0  0  0  0  0  0  0  0  0
    0.0000   -1.5000    0.0000 C   0  0  0  0  0  0  0  0  0  0  0  0
   -2.6003    1.4977    0.0000 C   0  0  0  0  0  0  0  0  0  0  0  0
   -3.8990    0.7455    0.0000 C   0  0  0  0  0  0  0  0  0  0  0  0
   -3.8969   -0.4545    0.0000 O   0  0  0  0  0  0  0  0  0  0  0  0
   -5.2003    1.4932    0.0000 N   0  0  0  0  0  0  0  0  0  0  0  0
   -6.4994    0.7432    0.0000 C   0  0  0  0  0  0  0  0  0  0  0  0
   -7.7985    1.4932    0.0000 C   0  0  0  0  0  0  0  0  0  0  0  0
   -7.7985    2.9932    0.0000 N   0  0  0  0  0  0  0  0  0  0  0  0
   -6.4995    3.7432    0.0000 C   0  0  0  0  0  0  0  0  0  0  0  0
   -5.2004    2.9933    0.0000 C   0  0  0  0  0  0  0  0  0  0  0  0
   -9.0982    3.7435    0.0000 C   0  0  0  0  0  0  0  0  0  0  0  0
  -10.4506    3.1246    0.0000 N   0  0  0  0  0  0  0  0  0  0  0  0
  -11.4526    4.2409    0.0000 C   0  0  0  0  0  0  0  0  0  0  0  0
  -10.7005    5.5388    0.0000 C   0  0  0  0  0  0  0  0  0  0  0  0
   -9.2338    5.2246    0.0000 S   0  0  0  0  0  0  0  0  0  0  0  0
   -2.6030    2.9985    0.0000 C   0  0  0  0  0  0  0  0  0  0  0  0
   -3.9023    3.7481    0.0000 C   0  0  0  0  0  0  0  0  0  0  0  0
   -3.9029    5.2481    0.0000 C   0  0  0  0  0  0  0  0  0  0  0  0
   -2.6041    5.9986    0.0000 C   0  0  0  0  0  0  0  0  0  0  0  0
   -1.3048    5.2491    0.0000 N   0  0  0  0  0  0  0  0  0  0  0  0
   -1.3042    3.7491    0.0000 C   0  0  0  0  0  0  0  0  0  0  0  0
  1  2  1  0  0  0  0
  2  3  2  0  0  0  0
  3  4  1  0  0  0  0
  4  5  2  0  0  0  0
  5  6  1  0  0  0  0
  6  7  2  0  0  0  0
  7  2  1  0  0  0  0
  5  8  1  0  0  0  0
  8  9  1  0  0  0  0
  9 10  2  0  0  0  0
  9 11  1  0  0  0  0
 11 12  1  0  0  0  0
 12 13  1  0  0  0  0
 13 14  1  0  0  0  0
 14 15  1  0  0  0  0
 15 16  1  0  0  0  0
 16 11  1  0  0  0  0
 14 17  1  0  0  0  0
 17 18  2  0  0  0  0
 18 19  1  0  0  0  0
 19 20  2  0  0  0  0
 20 21  1  0  0  0  0
 21 17  1  0  0  0  0
  8 22  1  0  0  0  0
 22 23  2  0  0  0  0
 23 24  1  0  0  0  0
 24 25  2  0  0  0  0
 25 26  1  0  0  0  0
 26 27  2  0  0  0  0
 27 22  1  0  0  0  0
M  END
>  <Other ID>
EPL-BS1387

>  <sub series>
amidopiperazines

>  <Source>
Epichem

>  <% growth M.myc at 100 uM>
3.9

>  <% growth M.myc at 25 uM>
74.72

>  <M. Myc IC50>


>  <M. Myc IC90>


>  <MIC50>


$$$$
Chemistry 119
  StarDrop          2D                              

 26 28  0  0  0  0  0  0  0  0999 V2000
    3.6331   -3.6060    0.0000 C   0  0  0  0  0  0  0  0  0  0  0  0
    2.5951   -3.0039    0.0000 C   0  0  0  0  0  0  0  0  0  0  0  0
    1.5548   -3.6021    0.0000 C   0  0  0  0  0  0  0  0  0  0  0  0
    2.5973   -1.5031    0.0000 C   0  0  0  0  0  0  0  0  0  0  0  0
    1.2990   -0.7500    0.0000 N   0  0  0  0  0  0  0  0  0  0  0  0
    1.2990    0.7500    0.0000 C   0  0  0  0  0  0  0  0  0  0  0  0
    0.0000    1.5000    0.0000 C   0  0  0  0  0  0  0  0  0  0  0  0
   -1.2990    0.7500    0.0000 N   0  0  0  0  0  0  0  0  0  0  0  0
   -1.2990   -0.7500    0.0000 C   0  0  0  0  0  0  0  0  0  0  0  0
    0.0000   -1.5000    0.0000 C   0  0  0  0  0  0  0  0  0  0  0  0
   -2.6003    1.4977    0.0000 C   0  0  0  0  0  0  0  0  0  0  0  0
   -2.6024    2.6977    0.0000 O   0  0  0  0  0  0  0  0  0  0  0  0
   -3.8990    0.7455    0.0000 C   0  0  0  0  0  0  0  0  0  0  0  0
   -5.2003    1.4932    0.0000 C   0  0  0  0  0  0  0  0  0  0  0  0
   -6.4994    0.7432    0.0000 C   0  0  0  0  0  0  0  0  0  0  0  0
   -7.7985    1.4932    0.0000 C   0  0  0  0  0  0  0  0  0  0  0  0
   -7.7985    2.9932    0.0000 C   0  0  0  0  0  0  0  0  0  0  0  0
   -8.8378    3.5932    0.0000 Cl  0  0  0  0  0  0  0  0  0  0  0  0
   -6.4995    3.7432    0.0000 C   0  0  0  0  0  0  0  0  0  0  0  0
   -5.2004    2.9933    0.0000 C   0  0  0  0  0  0  0  0  0  0  0  0
   -3.8964   -0.7553    0.0000 C   0  0  0  0  0  0  0  0  0  0  0  0
   -5.1931   -1.5094    0.0000 C   0  0  0  0  0  0  0  0  0  0  0  0
   -5.1885   -3.0094    0.0000 C   0  0  0  0  0  0  0  0  0  0  0  0
   -3.8871   -3.7554    0.0000 C   0  0  0  0  0  0  0  0  0  0  0  0
   -2.5904   -3.0014    0.0000 N   0  0  0  0  0  0  0  0  0  0  0  0
   -2.5951   -1.5014    0.0000 C   0  0  0  0  0  0  0  0  0  0  0  0
  1  2  1  0  0  0  0
  2  3  1  0  0  0  0
  2  4  1  0  0  0  0
  4  5  1  0  0  0  0
  5  6  1  0  0  0  0
  6  7  1  0  0  0  0
  7  8  1  0  0  0  0
  8  9  1  0  0  0  0
  9 10  1  0  0  0  0
 10  5  1  0  0  0  0
  8 11  1  0  0  0  0
 11 12  2  0  0  0  0
 11 13  1  0  0  0  0
 13 14  1  0  0  0  0
 14 15  2  0  0  0  0
 15 16  1  0  0  0  0
 16 17  2  0  0  0  0
 17 18  1  0  0  0  0
 17 19  1  0  0  0  0
 19 20  2  0  0  0  0
 20 14  1  0  0  0  0
 13 21  1  0  0  0  0
 21 22  2  0  0  0  0
 22 23  1  0  0  0  0
 23 24  2  0  0  0  0
 24 25  1  0  0  0  0
 25 26  2  0  0  0  0
 26 21  1  0  0  0  0
M  END
>  <Other ID>
EPL-BS1440

>  <sub series>
amidopiperazines

>  <Source>
Epichem

>  <% growth M.myc at 100 uM>
38.92

>  <% growth M.myc at 25 uM>
70.88

>  <M. Myc IC50>


>  <M. Myc IC90>


>  <MIC50>


$$$$
Chemistry 120
  StarDrop          2D                              

 33 36  0  0  0  0  0  0  0  0999 V2000
    3.6384   -0.9011    0.0000 F   0  0  0  0  0  0  0  0  0  0  0  0
    2.5988   -1.5004    0.0000 C   0  0  0  0  0  0  0  0  0  0  0  0
    2.5984   -2.7004    0.0000 F   0  0  0  0  0  0  0  0  0  0  0  0
    3.6377   -2.1009    0.0000 F   0  0  0  0  0  0  0  0  0  0  0  0
    1.2990   -0.7500    0.0000 C   0  0  0  0  0  0  0  0  0  0  0  0
    1.2990    0.7500    0.0000 C   0  0  0  0  0  0  0  0  0  0  0  0
    0.0000    1.5000    0.0000 C   0  0  0  0  0  0  0  0  0  0  0  0
   -1.2990    0.7500    0.0000 C   0  0  0  0  0  0  0  0  0  0  0  0
   -1.2990   -0.7500    0.0000 C   0  0  0  0  0  0  0  0  0  0  0  0
    0.0000   -1.5000    0.0000 N   0  0  0  0  0  0  0  0  0  0  0  0
   -2.5987    1.5004    0.0000 N   0  0  0  0  0  0  0  0  0  0  0  0
   -2.6012    3.0004    0.0000 C   0  0  0  0  0  0  0  0  0  0  0  0
   -3.9015    3.7484    0.0000 C   0  0  0  0  0  0  0  0  0  0  0  0
   -5.1993    2.9963    0.0000 N   0  0  0  0  0  0  0  0  0  0  0  0
   -5.1969    1.4963    0.0000 C   0  0  0  0  0  0  0  0  0  0  0  0
   -3.8967    0.7484    0.0000 C   0  0  0  0  0  0  0  0  0  0  0  0
   -6.5018    3.7420    0.0000 C   0  0  0  0  0  0  0  0  0  0  0  0
   -6.5058    4.9420    0.0000 O   0  0  0  0  0  0  0  0  0  0  0  0
   -7.7993    2.9876    0.0000 C   0  0  0  0  0  0  0  0  0  0  0  0
   -9.1017    3.7333    0.0000 C   0  0  0  0  0  0  0  0  0  0  0  0
  -10.3996    2.9813    0.0000 C   0  0  0  0  0  0  0  0  0  0  0  0
  -11.6999    3.7292    0.0000 C   0  0  0  0  0  0  0  0  0  0  0  0
  -11.7023    5.2292    0.0000 C   0  0  0  0  0  0  0  0  0  0  0  0
  -10.4045    5.9813    0.0000 C   0  0  0  0  0  0  0  0  0  0  0  0
   -9.1042    5.2334    0.0000 C   0  0  0  0  0  0  0  0  0  0  0  0
  -13.0033    5.9775    0.0000 C   0  0  0  0  0  0  0  0  0  0  0  0
  -14.0435    6.5758    0.0000 N   0  0  0  0  0  0  0  0  0  0  0  0
   -7.7943    1.4869    0.0000 C   0  0  0  0  0  0  0  0  0  0  0  0
   -9.0898    0.7307    0.0000 C   0  0  0  0  0  0  0  0  0  0  0  0
   -9.0827   -0.7693    0.0000 C   0  0  0  0  0  0  0  0  0  0  0  0
   -7.7802   -1.5132    0.0000 C   0  0  0  0  0  0  0  0  0  0  0  0
   -6.4847   -0.7571    0.0000 N   0  0  0  0  0  0  0  0  0  0  0  0
   -6.4917    0.7429    0.0000 C   0  0  0  0  0  0  0  0  0  0  0  0
  1  2  1  0  0  0  0
  2  3  1  0  0  0  0
  2  4  1  0  0  0  0
  2  5  1  0  0  0  0
  5  6  2  0  0  0  0
  6  7  1  0  0  0  0
  7  8  2  0  0  0  0
  8  9  1  0  0  0  0
  9 10  2  0  0  0  0
 10  5  1  0  0  0  0
  8 11  1  0  0  0  0
 11 12  1  0  0  0  0
 12 13  1  0  0  0  0
 13 14  1  0  0  0  0
 14 15  1  0  0  0  0
 15 16  1  0  0  0  0
 16 11  1  0  0  0  0
 14 17  1  0  0  0  0
 17 18  2  0  0  0  0
 17 19  1  0  0  0  0
 19 20  1  0  0  0  0
 20 21  2  0  0  0  0
 21 22  1  0  0  0  0
 22 23  2  0  0  0  0
 23 24  1  0  0  0  0
 24 25  2  0  0  0  0
 25 20  1  0  0  0  0
 23 26  1  0  0  0  0
 26 27  3  0  0  0  0
 19 28  1  0  0  0  0
 28 29  2  0  0  0  0
 29 30  1  0  0  0  0
 30 31  2  0  0  0  0
 31 32  1  0  0  0  0
 32 33  2  0  0  0  0
 33 28  1  0  0  0  0
M  END
>  <Other ID>
EPL-BS1482

>  <sub series>
amidopiperazines

>  <Source>
Epichem

>  <% growth M.myc at 100 uM>
89.05

>  <% growth M.myc at 25 uM>
92.92

>  <M. Myc IC50>


>  <M. Myc IC90>


>  <MIC50>


$$$$
Chemistry 121
  StarDrop          2D                              

 33 36  0  0  0  0  0  0  0  0999 V2000
    3.6384   -0.9011    0.0000 F   0  0  0  0  0  0  0  0  0  0  0  0
    2.5988   -1.5004    0.0000 C   0  0  0  0  0  0  0  0  0  0  0  0
    2.5984   -2.7004    0.0000 F   0  0  0  0  0  0  0  0  0  0  0  0
    3.6377   -2.1009    0.0000 F   0  0  0  0  0  0  0  0  0  0  0  0
    1.2990   -0.7500    0.0000 C   0  0  0  0  0  0  0  0  0  0  0  0
    1.2990    0.7500    0.0000 C   0  0  0  0  0  0  0  0  0  0  0  0
    0.0000    1.5000    0.0000 C   0  0  0  0  0  0  0  0  0  0  0  0
   -1.2990    0.7500    0.0000 C   0  0  0  0  0  0  0  0  0  0  0  0
   -1.2990   -0.7500    0.0000 C   0  0  0  0  0  0  0  0  0  0  0  0
    0.0000   -1.5000    0.0000 N   0  0  0  0  0  0  0  0  0  0  0  0
   -2.5987    1.5004    0.0000 N   0  0  0  0  0  0  0  0  0  0  0  0
   -2.6012    3.0004    0.0000 C   0  0  0  0  0  0  0  0  0  0  0  0
   -3.9015    3.7484    0.0000 C   0  0  0  0  0  0  0  0  0  0  0  0
   -5.1993    2.9963    0.0000 N   0  0  0  0  0  0  0  0  0  0  0  0
   -5.1969    1.4963    0.0000 C   0  0  0  0  0  0  0  0  0  0  0  0
   -3.8967    0.7484    0.0000 C   0  0  0  0  0  0  0  0  0  0  0  0
   -6.5018    3.7420    0.0000 C   0  0  0  0  0  0  0  0  0  0  0  0
   -6.5058    4.9420    0.0000 O   0  0  0  0  0  0  0  0  0  0  0  0
   -7.7993    2.9876    0.0000 C   0  0  0  0  0  0  0  0  0  0  0  0
   -9.1017    3.7333    0.0000 C   0  0  0  0  0  0  0  0  0  0  0  0
  -10.3996    2.9813    0.0000 C   0  0  0  0  0  0  0  0  0  0  0  0
  -11.6999    3.7292    0.0000 C   0  0  0  0  0  0  0  0  0  0  0  0
  -11.7023    5.2292    0.0000 C   0  0  0  0  0  0  0  0  0  0  0  0
  -10.4045    5.9813    0.0000 C   0  0  0  0  0  0  0  0  0  0  0  0
   -9.1042    5.2334    0.0000 C   0  0  0  0  0  0  0  0  0  0  0  0
  -13.0033    5.9775    0.0000 C   0  0  0  0  0  0  0  0  0  0  0  0
  -14.0435    6.5758    0.0000 N   0  0  0  0  0  0  0  0  0  0  0  0
   -7.7943    1.4869    0.0000 C   0  0  0  0  0  0  0  0  0  0  0  0
   -9.0898    0.7307    0.0000 C   0  0  0  0  0  0  0  0  0  0  0  0
   -9.0827   -0.7693    0.0000 C   0  0  0  0  0  0  0  0  0  0  0  0
   -7.7802   -1.5132    0.0000 C   0  0  0  0  0  0  0  0  0  0  0  0
   -6.4847   -0.7571    0.0000 N   0  0  0  0  0  0  0  0  0  0  0  0
   -6.4917    0.7429    0.0000 C   0  0  0  0  0  0  0  0  0  0  0  0
  1  2  1  0  0  0  0
  2  3  1  0  0  0  0
  2  4  1  0  0  0  0
  2  5  1  0  0  0  0
  5  6  2  0  0  0  0
  6  7  1  0  0  0  0
  7  8  2  0  0  0  0
  8  9  1  0  0  0  0
  9 10  2  0  0  0  0
 10  5  1  0  0  0  0
  8 11  1  0  0  0  0
 11 12  1  0  0  0  0
 12 13  1  0  0  0  0
 13 14  1  0  0  0  0
 14 15  1  0  0  0  0
 15 16  1  0  0  0  0
 16 11  1  0  0  0  0
 14 17  1  0  0  0  0
 17 18  2  0  0  0  0
 17 19  1  0  0  0  0
 19 20  1  0  0  0  0
 20 21  2  0  0  0  0
 21 22  1  0  0  0  0
 22 23  2  0  0  0  0
 23 24  1  0  0  0  0
 24 25  2  0  0  0  0
 25 20  1  0  0  0  0
 23 26  1  0  0  0  0
 26 27  3  0  0  0  0
 19 28  1  0  0  0  0
 28 29  2  0  0  0  0
 29 30  1  0  0  0  0
 30 31  2  0  0  0  0
 31 32  1  0  0  0  0
 32 33  2  0  0  0  0
 33 28  1  0  0  0  0
M  END
>  <Other ID>
EPL-BS1483

>  <sub series>
amidopiperazines

>  <Source>
Epichem

>  <% growth M.myc at 100 uM>
98.43

>  <% growth M.myc at 25 uM>
96.89

>  <M. Myc IC50>


>  <M. Myc IC90>


>  <MIC50>


$$$$
Chemistry 12
  StarDrop          2D                              

 26 28  0  0  0  0  0  0  0  0999 V2000
    3.6331   -3.6060    0.0000 C   0  0  0  0  0  0  0  0  0  0  0  0
    2.5951   -3.0039    0.0000 N   0  0  0  0  0  0  0  0  0  0  0  0
    1.5548   -3.6021    0.0000 C   0  0  0  0  0  0  0  0  0  0  0  0
    2.5973   -1.5031    0.0000 C   0  0  0  0  0  0  0  0  0  0  0  0
    3.6375   -0.9049    0.0000 O   0  0  0  0  0  0  0  0  0  0  0  0
    1.2990   -0.7500    0.0000 N   0  0  0  0  0  0  0  0  0  0  0  0
    1.2990    0.7500    0.0000 C   0  0  0  0  0  0  0  0  0  0  0  0
    0.0000    1.5000    0.0000 C   0  0  0  0  0  0  0  0  0  0  0  0
   -1.2990    0.7500    0.0000 C   0  0  0  0  0  0  0  0  0  0  0  0
   -1.2990   -0.7500    0.0000 C   0  0  0  0  0  0  0  0  0  0  0  0
    0.0000   -1.5000    0.0000 C   0  0  0  0  0  0  0  0  0  0  0  0
   -2.6003    1.4977    0.0000 N   0  0  0  0  0  0  0  0  0  0  0  0
   -3.8990    0.7455    0.0000 C   0  0  0  0  0  0  0  0  0  0  0  0
   -5.2003    1.4932    0.0000 C   0  0  0  0  0  0  0  0  0  0  0  0
   -6.4994    0.7432    0.0000 C   0  0  0  0  0  0  0  0  0  0  0  0
   -7.7985    1.4932    0.0000 C   0  0  0  0  0  0  0  0  0  0  0  0
   -7.7985    2.9932    0.0000 C   0  0  0  0  0  0  0  0  0  0  0  0
   -8.8378    3.5932    0.0000 Cl  0  0  0  0  0  0  0  0  0  0  0  0
   -6.4995    3.7432    0.0000 C   0  0  0  0  0  0  0  0  0  0  0  0
   -5.2004    2.9933    0.0000 C   0  0  0  0  0  0  0  0  0  0  0  0
   -3.8964   -0.7553    0.0000 C   0  0  0  0  0  0  0  0  0  0  0  0
   -5.1931   -1.5094    0.0000 C   0  0  0  0  0  0  0  0  0  0  0  0
   -5.1885   -3.0094    0.0000 C   0  0  0  0  0  0  0  0  0  0  0  0
   -3.8871   -3.7554    0.0000 C   0  0  0  0  0  0  0  0  0  0  0  0
   -2.5904   -3.0014    0.0000 N   0  0  0  0  0  0  0  0  0  0  0  0
   -2.5951   -1.5014    0.0000 C   0  0  0  0  0  0  0  0  0  0  0  0
  1  2  1  0  0  0  0
  2  3  1  0  0  0  0
  2  4  1  0  0  0  0
  4  5  2  0  0  0  0
  4  6  1  0  0  0  0
  6  7  1  0  0  0  0
  7  8  1  0  0  0  0
  8  9  1  0  0  0  0
  9 10  1  0  0  0  0
 10 11  1  0  0  0  0
 11  6  1  0  0  0  0
  9 12  1  0  0  0  0
 12 13  1  0  0  0  0
 13 14  1  0  0  0  0
 14 15  2  0  0  0  0
 15 16  1  0  0  0  0
 16 17  2  0  0  0  0
 17 18  1  0  0  0  0
 17 19  1  0  0  0  0
 19 20  2  0  0  0  0
 20 14  1  0  0  0  0
 13 21  1  0  0  0  0
 21 22  2  0  0  0  0
 22 23  1  0  0  0  0
 23 24  2  0  0  0  0
 24 25  1  0  0  0  0
 25 26  2  0  0  0  0
 26 21  1  0  0  0  0
M  END
>  <Other ID>
EPL-BS0480

>  <sub series>
aminopiperidines reversed

>  <Source>
Epichem

>  <% growth M.myc at 100 uM>
71.07

>  <% growth M.myc at 25 uM>
85.3

>  <M. Myc IC50>


>  <M. Myc IC90>


>  <MIC50>


$$$$
Chemistry 14
  StarDrop          2D                              

 30 33  0  0  0  0  0  0  0  0999 V2000
    2.3383   -1.3500    0.0000 Cl  0  0  0  0  0  0  0  0  0  0  0  0
    1.2990   -0.7500    0.0000 C   0  0  0  0  0  0  0  0  0  0  0  0
    1.2990    0.7500    0.0000 C   0  0  0  0  0  0  0  0  0  0  0  0
    0.0000    1.5000    0.0000 C   0  0  0  0  0  0  0  0  0  0  0  0
   -1.2990    0.7500    0.0000 C   0  0  0  0  0  0  0  0  0  0  0  0
   -1.2990   -0.7500    0.0000 C   0  0  0  0  0  0  0  0  0  0  0  0
    0.0000   -1.5000    0.0000 C   0  0  0  0  0  0  0  0  0  0  0  0
   -2.6003    1.4977    0.0000 C   0  0  0  0  0  0  0  0  0  0  0  0
   -3.8990    0.7455    0.0000 N   0  0  0  0  0  0  0  0  0  0  0  0
   -5.2003    1.4932    0.0000 C   0  0  0  0  0  0  0  0  0  0  0  0
   -6.4994    0.7432    0.0000 C   0  0  0  0  0  0  0  0  0  0  0  0
   -7.7985    1.4932    0.0000 C   0  0  0  0  0  0  0  0  0  0  0  0
   -7.7985    2.9932    0.0000 N   0  0  0  0  0  0  0  0  0  0  0  0
   -6.4995    3.7432    0.0000 C   0  0  0  0  0  0  0  0  0  0  0  0
   -5.2004    2.9933    0.0000 C   0  0  0  0  0  0  0  0  0  0  0  0
   -9.0967    3.7462    0.0000 C   0  0  0  0  0  0  0  0  0  0  0  0
  -10.1370    3.1480    0.0000 O   0  0  0  0  0  0  0  0  0  0  0  0
   -9.0947    5.2471    0.0000 N   0  0  0  0  0  0  0  0  0  0  0  0
  -10.3929    6.0001    0.0000 C   0  0  0  0  0  0  0  0  0  0  0  0
  -10.3930    7.5001    0.0000 C   0  0  0  0  0  0  0  0  0  0  0  0
  -11.6920    8.2501    0.0000 C   0  0  0  0  0  0  0  0  0  0  0  0
  -12.9911    7.5001    0.0000 C   0  0  0  0  0  0  0  0  0  0  0  0
  -12.9910    6.0001    0.0000 C   0  0  0  0  0  0  0  0  0  0  0  0
  -11.6920    5.2501    0.0000 C   0  0  0  0  0  0  0  0  0  0  0  0
   -2.6030    2.9985    0.0000 C   0  0  0  0  0  0  0  0  0  0  0  0
   -3.9023    3.7481    0.0000 C   0  0  0  0  0  0  0  0  0  0  0  0
   -3.9029    5.2481    0.0000 C   0  0  0  0  0  0  0  0  0  0  0  0
   -2.6041    5.9986    0.0000 C   0  0  0  0  0  0  0  0  0  0  0  0
   -1.3048    5.2491    0.0000 N   0  0  0  0  0  0  0  0  0  0  0  0
   -1.3042    3.7491    0.0000 C   0  0  0  0  0  0  0  0  0  0  0  0
  1  2  1  0  0  0  0
  2  3  2  0  0  0  0
  3  4  1  0  0  0  0
  4  5  2  0  0  0  0
  5  6  1  0  0  0  0
  6  7  2  0  0  0  0
  7  2  1  0  0  0  0
  5  8  1  0  0  0  0
  8  9  1  0  0  0  0
  9 10  1  0  0  0  0
 10 11  1  0  0  0  0
 11 12  1  0  0  0  0
 12 13  1  0  0  0  0
 13 14  1  0  0  0  0
 14 15  1  0  0  0  0
 15 10  1  0  0  0  0
 13 16  1  0  0  0  0
 16 17  2  0  0  0  0
 16 18  1  0  0  0  0
 18 19  1  0  0  0  0
 19 20  1  0  0  0  0
 20 21  1  0  0  0  0
 21 22  1  0  0  0  0
 22 23  1  0  0  0  0
 23 24  1  0  0  0  0
 24 19  1  0  0  0  0
  8 25  1  0  0  0  0
 25 26  2  0  0  0  0
 26 27  1  0  0  0  0
 27 28  2  0  0  0  0
 28 29  1  0  0  0  0
 29 30  2  0  0  0  0
 30 25  1  0  0  0  0
M  END
>  <Other ID>
EPL-BS0506

>  <sub series>
aminopiperidines reversed

>  <Source>
Epichem

>  <% growth M.myc at 100 uM>
76.18

>  <% growth M.myc at 25 uM>
98.85

>  <M. Myc IC50>


>  <M. Myc IC90>


>  <MIC50>


$$$$
Chemistry 19
  StarDrop          2D                              

 29 32  0  0  0  0  0  0  0  0999 V2000
    2.3383   -1.3500    0.0000 F   0  0  0  0  0  0  0  0  0  0  0  0
    1.2990   -0.7500    0.0000 C   0  0  0  0  0  0  0  0  0  0  0  0
    1.2990    0.7500    0.0000 C   0  0  0  0  0  0  0  0  0  0  0  0
    0.0000    1.5000    0.0000 C   0  0  0  0  0  0  0  0  0  0  0  0
    0.0000    2.7000    0.0000 Cl  0  0  0  0  0  0  0  0  0  0  0  0
   -1.2990    0.7500    0.0000 C   0  0  0  0  0  0  0  0  0  0  0  0
   -1.2990   -0.7500    0.0000 C   0  0  0  0  0  0  0  0  0  0  0  0
    0.0000   -1.5000    0.0000 C   0  0  0  0  0  0  0  0  0  0  0  0
   -0.0031   -3.0008    0.0000 C   0  0  0  0  0  0  0  0  0  0  0  0
   -1.3039   -3.7494    0.0000 N   0  0  0  0  0  0  0  0  0  0  0  0
   -1.3070   -5.2502    0.0000 C   0  0  0  0  0  0  0  0  0  0  0  0
   -2.6060   -6.0003    0.0000 C   0  0  0  0  0  0  0  0  0  0  0  0
   -2.6060   -7.5003    0.0000 C   0  0  0  0  0  0  0  0  0  0  0  0
   -1.3070   -8.2503    0.0000 N   0  0  0  0  0  0  0  0  0  0  0  0
   -0.0080   -7.5003    0.0000 C   0  0  0  0  0  0  0  0  0  0  0  0
   -0.0079   -6.0003    0.0000 C   0  0  0  0  0  0  0  0  0  0  0  0
   -1.3040   -9.7511    0.0000 C   0  0  0  0  0  0  0  0  0  0  0  0
   -2.3422  -10.3529    0.0000 O   0  0  0  0  0  0  0  0  0  0  0  0
   -0.0032  -10.4997    0.0000 C   0  0  0  0  0  0  0  0  0  0  0  0
    0.1398  -11.9801    0.0000 C   0  0  0  0  0  0  0  0  0  0  0  0
    1.6081  -12.2869    0.0000 S   0  0  0  0  0  0  0  0  0  0  0  0
    2.3536  -10.9853    0.0000 C   0  0  0  0  0  0  0  0  0  0  0  0
    1.3461   -9.8740    0.0000 N   0  0  0  0  0  0  0  0  0  0  0  0
    1.2953   -3.7535    0.0000 C   0  0  0  0  0  0  0  0  0  0  0  0
    1.2948   -5.2535    0.0000 C   0  0  0  0  0  0  0  0  0  0  0  0
    2.5936   -6.0040    0.0000 C   0  0  0  0  0  0  0  0  0  0  0  0
    3.8929   -5.2545    0.0000 C   0  0  0  0  0  0  0  0  0  0  0  0
    3.8935   -3.7545    0.0000 N   0  0  0  0  0  0  0  0  0  0  0  0
    2.5947   -3.0040    0.0000 C   0  0  0  0  0  0  0  0  0  0  0  0
  1  2  1  0  0  0  0
  2  3  2  0  0  0  0
  3  4  1  0  0  0  0
  4  5  1  0  0  0  0
  4  6  2  0  0  0  0
  6  7  1  0  0  0  0
  7  8  2  0  0  0  0
  8  2  1  0  0  0  0
  8  9  1  0  0  0  0
  9 10  1  0  0  0  0
 10 11  1  0  0  0  0
 11 12  1  0  0  0  0
 12 13  1  0  0  0  0
 13 14  1  0  0  0  0
 14 15  1  0  0  0  0
 15 16  1  0  0  0  0
 16 11  1  0  0  0  0
 14 17  1  0  0  0  0
 17 18  2  0  0  0  0
 17 19  1  0  0  0  0
 19 20  2  0  0  0  0
 20 21  1  0  0  0  0
 21 22  1  0  0  0  0
 22 23  2  0  0  0  0
 23 19  1  0  0  0  0
  9 24  1  0  0  0  0
 24 25  2  0  0  0  0
 25 26  1  0  0  0  0
 26 27  2  0  0  0  0
 27 28  1  0  0  0  0
 28 29  2  0  0  0  0
 29 24  1  0  0  0  0
M  END
>  <Other ID>
EPL-BS0633

>  <sub series>
aminopiperidines reversed

>  <Source>
Epichem

>  <% growth M.myc at 100 uM>
60.07

>  <% growth M.myc at 25 uM>
85.87

>  <M. Myc IC50>


>  <M. Myc IC90>


>  <MIC50>


$$$$
Chemistry 88
  StarDrop          2D                              

 28 30  0  0  0  0  0  0  0  0999 V2000
    3.8916   -4.9570    0.0000 C   0  0  0  0  0  0  0  0  0  0  0  0
    3.8933   -3.7570    0.0000 C   0  0  0  0  0  0  0  0  0  0  0  0
    4.9336   -3.1588    0.0000 C   0  0  0  0  0  0  0  0  0  0  0  0
    4.9316   -4.3586    0.0000 C   0  0  0  0  0  0  0  0  0  0  0  0
    2.5951   -3.0039    0.0000 N   0  0  0  0  0  0  0  0  0  0  0  0
    2.5973   -1.5031    0.0000 C   0  0  0  0  0  0  0  0  0  0  0  0
    3.6375   -0.9049    0.0000 O   0  0  0  0  0  0  0  0  0  0  0  0
    1.2990   -0.7500    0.0000 N   0  0  0  0  0  0  0  0  0  0  0  0
    1.2990    0.7500    0.0000 C   0  0  0  0  0  0  0  0  0  0  0  0
    0.0000    1.5000    0.0000 C   0  0  0  0  0  0  0  0  0  0  0  0
   -1.2990    0.7500    0.0000 C   0  0  0  0  0  0  0  0  0  0  0  0
   -1.2990   -0.7500    0.0000 C   0  0  0  0  0  0  0  0  0  0  0  0
    0.0000   -1.5000    0.0000 C   0  0  0  0  0  0  0  0  0  0  0  0
   -2.6003    1.4977    0.0000 N   0  0  0  0  0  0  0  0  0  0  0  0
   -3.8990    0.7455    0.0000 C   0  0  0  0  0  0  0  0  0  0  0  0
   -5.2003    1.4932    0.0000 C   0  0  0  0  0  0  0  0  0  0  0  0
   -6.4994    0.7432    0.0000 C   0  0  0  0  0  0  0  0  0  0  0  0
   -7.7985    1.4932    0.0000 C   0  0  0  0  0  0  0  0  0  0  0  0
   -7.7985    2.9932    0.0000 C   0  0  0  0  0  0  0  0  0  0  0  0
   -8.8378    3.5932    0.0000 Cl  0  0  0  0  0  0  0  0  0  0  0  0
   -6.4995    3.7432    0.0000 C   0  0  0  0  0  0  0  0  0  0  0  0
   -5.2004    2.9933    0.0000 C   0  0  0  0  0  0  0  0  0  0  0  0
   -3.8964   -0.7553    0.0000 C   0  0  0  0  0  0  0  0  0  0  0  0
   -5.1931   -1.5094    0.0000 C   0  0  0  0  0  0  0  0  0  0  0  0
   -5.1885   -3.0094    0.0000 C   0  0  0  0  0  0  0  0  0  0  0  0
   -3.8871   -3.7554    0.0000 C   0  0  0  0  0  0  0  0  0  0  0  0
   -2.5904   -3.0014    0.0000 N   0  0  0  0  0  0  0  0  0  0  0  0
   -2.5951   -1.5014    0.0000 C   0  0  0  0  0  0  0  0  0  0  0  0
  1  2  1  0  0  0  0
  2  3  1  0  0  0  0
  2  4  1  0  0  0  0
  2  5  1  0  0  0  0
  5  6  1  0  0  0  0
  6  7  2  0  0  0  0
  6  8  1  0  0  0  0
  8  9  1  0  0  0  0
  9 10  1  0  0  0  0
 10 11  1  0  0  0  0
 11 12  1  0  0  0  0
 12 13  1  0  0  0  0
 13  8  1  0  0  0  0
 11 14  1  0  0  0  0
 14 15  1  0  0  0  0
 15 16  1  0  0  0  0
 16 17  2  0  0  0  0
 17 18  1  0  0  0  0
 18 19  2  0  0  0  0
 19 20  1  0  0  0  0
 19 21  1  0  0  0  0
 21 22  2  0  0  0  0
 22 16  1  0  0  0  0
 15 23  1  0  0  0  0
 23 24  2  0  0  0  0
 24 25  1  0  0  0  0
 25 26  2  0  0  0  0
 26 27  1  0  0  0  0
 27 28  2  0  0  0  0
 28 23  1  0  0  0  0
M  END
>  <Other ID>
EPL-BS0476

>  <sub series>
aminopiperidines reversed

>  <Source>
Epichem

>  <% growth M.myc at 100 uM>
84.25

>  <% growth M.myc at 25 uM>
87.66

>  <M. Myc IC50>


>  <M. Myc IC90>


>  <MIC50>


$$$$
Chemistry 92
  StarDrop          2D                              

 32 35  0  0  0  0  0  0  0  0999 V2000
    3.6384   -0.9011    0.0000 F   0  0  0  0  0  0  0  0  0  0  0  0
    2.5988   -1.5004    0.0000 C   0  0  0  0  0  0  0  0  0  0  0  0
    2.5984   -2.7004    0.0000 F   0  0  0  0  0  0  0  0  0  0  0  0
    3.6377   -2.1009    0.0000 F   0  0  0  0  0  0  0  0  0  0  0  0
    1.2990   -0.7500    0.0000 C   0  0  0  0  0  0  0  0  0  0  0  0
    1.2990    0.7500    0.0000 C   0  0  0  0  0  0  0  0  0  0  0  0
    0.0000    1.5000    0.0000 C   0  0  0  0  0  0  0  0  0  0  0  0
   -1.2990    0.7500    0.0000 C   0  0  0  0  0  0  0  0  0  0  0  0
   -1.2990   -0.7500    0.0000 C   0  0  0  0  0  0  0  0  0  0  0  0
    0.0000   -1.5000    0.0000 C   0  0  0  0  0  0  0  0  0  0  0  0
   -2.6003    1.4977    0.0000 C   0  0  0  0  0  0  0  0  0  0  0  0
   -3.8990    0.7455    0.0000 N   0  0  0  0  0  0  0  0  0  0  0  0
   -5.2003    1.4932    0.0000 C   0  0  0  0  0  0  0  0  0  0  0  0
   -6.4994    0.7432    0.0000 C   0  0  0  0  0  0  0  0  0  0  0  0
   -7.7985    1.4932    0.0000 C   0  0  0  0  0  0  0  0  0  0  0  0
   -7.7985    2.9932    0.0000 N   0  0  0  0  0  0  0  0  0  0  0  0
   -6.4995    3.7432    0.0000 C   0  0  0  0  0  0  0  0  0  0  0  0
   -5.2004    2.9933    0.0000 C   0  0  0  0  0  0  0  0  0  0  0  0
   -9.0967    3.7462    0.0000 C   0  0  0  0  0  0  0  0  0  0  0  0
  -10.1370    3.1480    0.0000 O   0  0  0  0  0  0  0  0  0  0  0  0
   -9.0947    5.2471    0.0000 C   0  0  0  0  0  0  0  0  0  0  0  0
  -10.3911    6.0016    0.0000 C   0  0  0  0  0  0  0  0  0  0  0  0
  -10.3859    7.5016    0.0000 C   0  0  0  0  0  0  0  0  0  0  0  0
   -9.0843    8.2471    0.0000 C   0  0  0  0  0  0  0  0  0  0  0  0
   -7.7879    7.4927    0.0000 C   0  0  0  0  0  0  0  0  0  0  0  0
   -7.7930    5.9927    0.0000 C   0  0  0  0  0  0  0  0  0  0  0  0
   -2.6030    2.9985    0.0000 C   0  0  0  0  0  0  0  0  0  0  0  0
   -3.9023    3.7481    0.0000 C   0  0  0  0  0  0  0  0  0  0  0  0
   -3.9029    5.2481    0.0000 C   0  0  0  0  0  0  0  0  0  0  0  0
   -2.6041    5.9986    0.0000 C   0  0  0  0  0  0  0  0  0  0  0  0
   -1.3048    5.2491    0.0000 N   0  0  0  0  0  0  0  0  0  0  0  0
   -1.3042    3.7491    0.0000 C   0  0  0  0  0  0  0  0  0  0  0  0
  1  2  1  0  0  0  0
  2  3  1  0  0  0  0
  2  4  1  0  0  0  0
  2  5  1  0  0  0  0
  5  6  2  0  0  0  0
  6  7  1  0  0  0  0
  7  8  2  0  0  0  0
  8  9  1  0  0  0  0
  9 10  2  0  0  0  0
 10  5  1  0  0  0  0
  8 11  1  0  0  0  0
 11 12  1  0  0  0  0
 12 13  1  0  0  0  0
 13 14  1  0  0  0  0
 14 15  1  0  0  0  0
 15 16  1  0  0  0  0
 16 17  1  0  0  0  0
 17 18  1  0  0  0  0
 18 13  1  0  0  0  0
 16 19  1  0  0  0  0
 19 20  2  0  0  0  0
 19 21  1  0  0  0  0
 21 22  2  0  0  0  0
 22 23  1  0  0  0  0
 23 24  2  0  0  0  0
 24 25  1  0  0  0  0
 25 26  2  0  0  0  0
 26 21  1  0  0  0  0
 11 27  1  0  0  0  0
 27 28  2  0  0  0  0
 28 29  1  0  0  0  0
 29 30  2  0  0  0  0
 30 31  1  0  0  0  0
 31 32  2  0  0  0  0
 32 27  1  0  0  0  0
M  END
>  <Other ID>
EPL-BS0523

>  <sub series>
aminopiperidines reversed

>  <Source>
Epichem

>  <% growth M.myc at 100 uM>
44.87

>  <% growth M.myc at 25 uM>
83.8

>  <M. Myc IC50>


>  <M. Myc IC90>


>  <MIC50>


$$$$
Chemistry 95
  StarDrop          2D                              

 31 33  0  0  0  0  0  0  0  0999 V2000
    4.9292   -5.8600    0.0000 C   0  0  0  0  0  0  0  0  0  0  0  0
    3.8912   -5.2578    0.0000 C   0  0  0  0  0  0  0  0  0  0  0  0
    2.8509   -5.8560    0.0000 C   0  0  0  0  0  0  0  0  0  0  0  0
    3.8889   -6.4578    0.0000 C   0  0  0  0  0  0  0  0  0  0  0  0
    3.8933   -3.7570    0.0000 O   0  0  0  0  0  0  0  0  0  0  0  0
    2.5951   -3.0039    0.0000 C   0  0  0  0  0  0  0  0  0  0  0  0
    1.5548   -3.6021    0.0000 O   0  0  0  0  0  0  0  0  0  0  0  0
    2.5973   -1.5031    0.0000 N   0  0  0  0  0  0  0  0  0  0  0  0
    1.2990   -0.7500    0.0000 C   0  0  0  0  0  0  0  0  0  0  0  0
    1.2990    0.7500    0.0000 C   0  0  0  0  0  0  0  0  0  0  0  0
    0.0000    1.5000    0.0000 C   0  0  0  0  0  0  0  0  0  0  0  0
   -1.2990    0.7500    0.0000 N   0  0  0  0  0  0  0  0  0  0  0  0
   -1.2990   -0.7500    0.0000 C   0  0  0  0  0  0  0  0  0  0  0  0
    0.0000   -1.5000    0.0000 C   0  0  0  0  0  0  0  0  0  0  0  0
   -2.5998    1.4986    0.0000 C   0  0  0  0  0  0  0  0  0  0  0  0
   -3.8983    0.7460    0.0000 C   0  0  0  0  0  0  0  0  0  0  0  0
   -3.8989   -0.7540    0.0000 C   0  0  0  0  0  0  0  0  0  0  0  0
   -5.1982   -1.5035    0.0000 C   0  0  0  0  0  0  0  0  0  0  0  0
   -6.4970   -0.7530    0.0000 C   0  0  0  0  0  0  0  0  0  0  0  0
   -6.4964    0.7470    0.0000 C   0  0  0  0  0  0  0  0  0  0  0  0
   -5.1971    1.4965    0.0000 C   0  0  0  0  0  0  0  0  0  0  0  0
   -7.7970   -1.5030    0.0000 C   0  0  0  0  0  0  0  0  0  0  0  0
   -7.7982   -2.7030    0.0000 F   0  0  0  0  0  0  0  0  0  0  0  0
   -8.8358   -0.9023    0.0000 F   0  0  0  0  0  0  0  0  0  0  0  0
   -8.8367   -2.1021    0.0000 F   0  0  0  0  0  0  0  0  0  0  0  0
   -2.6013    2.9994    0.0000 C   0  0  0  0  0  0  0  0  0  0  0  0
   -1.3046    3.7535    0.0000 C   0  0  0  0  0  0  0  0  0  0  0  0
   -1.3092    5.2535    0.0000 C   0  0  0  0  0  0  0  0  0  0  0  0
   -2.6105    5.9995    0.0000 C   0  0  0  0  0  0  0  0  0  0  0  0
   -3.9073    5.2455    0.0000 N   0  0  0  0  0  0  0  0  0  0  0  0
   -3.9027    3.7455    0.0000 C   0  0  0  0  0  0  0  0  0  0  0  0
  1  2  1  0  0  0  0
  2  3  1  0  0  0  0
  2  4  1  0  0  0  0
  2  5  1  0  0  0  0
  5  6  1  0  0  0  0
  6  7  2  0  0  0  0
  6  8  1  0  0  0  0
  8  9  1  0  0  0  0
  9 10  1  0  0  0  0
 10 11  1  0  0  0  0
 11 12  1  0  0  0  0
 12 13  1  0  0  0  0
 13 14  1  0  0  0  0
 14  9  1  0  0  0  0
 12 15  1  0  0  0  0
 15 16  1  0  0  0  0
 16 17  2  0  0  0  0
 17 18  1  0  0  0  0
 18 19  2  0  0  0  0
 19 20  1  0  0  0  0
 20 21  2  0  0  0  0
 21 16  1  0  0  0  0
 19 22  1  0  0  0  0
 22 23  1  0  0  0  0
 22 24  1  0  0  0  0
 22 25  1  0  0  0  0
 15 26  1  0  0  0  0
 26 27  2  0  0  0  0
 27 28  1  0  0  0  0
 28 29  2  0  0  0  0
 29 30  1  0  0  0  0
 30 31  2  0  0  0  0
 31 26  1  0  0  0  0
M  END
>  <Other ID>
EPL-BS0558

>  <sub series>
aminopiperidines reversed

>  <Source>
Epichem

>  <% growth M.myc at 100 uM>
64.24

>  <% growth M.myc at 25 uM>
72.42

>  <M. Myc IC50>


>  <M. Myc IC90>


>  <MIC50>


$$$$
Chemistry 96
  StarDrop          2D                              

 31 33  0  0  0  0  0  0  0  0999 V2000
    3.8916   -4.9570    0.0000 C   0  0  0  0  0  0  0  0  0  0  0  0
    3.8933   -3.7570    0.0000 C   0  0  0  0  0  0  0  0  0  0  0  0
    2.5951   -3.0039    0.0000 N   0  0  0  0  0  0  0  0  0  0  0  0
    1.2956   -3.7547    0.0000 C   0  0  0  0  0  0  0  0  0  0  0  0
    1.2952   -4.9547    0.0000 C   0  0  0  0  0  0  0  0  0  0  0  0
    2.5973   -1.5031    0.0000 C   0  0  0  0  0  0  0  0  0  0  0  0
    3.6375   -0.9049    0.0000 O   0  0  0  0  0  0  0  0  0  0  0  0
    1.2990   -0.7500    0.0000 N   0  0  0  0  0  0  0  0  0  0  0  0
    1.2990    0.7500    0.0000 C   0  0  0  0  0  0  0  0  0  0  0  0
    0.0000    1.5000    0.0000 C   0  0  0  0  0  0  0  0  0  0  0  0
   -1.2990    0.7500    0.0000 C   0  0  0  0  0  0  0  0  0  0  0  0
   -1.2990   -0.7500    0.0000 C   0  0  0  0  0  0  0  0  0  0  0  0
    0.0000   -1.5000    0.0000 C   0  0  0  0  0  0  0  0  0  0  0  0
   -2.6003    1.4977    0.0000 N   0  0  0  0  0  0  0  0  0  0  0  0
   -3.8990    0.7455    0.0000 C   0  0  0  0  0  0  0  0  0  0  0  0
   -5.2003    1.4932    0.0000 C   0  0  0  0  0  0  0  0  0  0  0  0
   -6.4994    0.7432    0.0000 C   0  0  0  0  0  0  0  0  0  0  0  0
   -7.7985    1.4932    0.0000 C   0  0  0  0  0  0  0  0  0  0  0  0
   -7.7985    2.9932    0.0000 C   0  0  0  0  0  0  0  0  0  0  0  0
   -9.0967    3.7462    0.0000 O   0  0  0  0  0  0  0  0  0  0  0  0
   -9.0947    5.2471    0.0000 C   0  0  0  0  0  0  0  0  0  0  0  0
  -10.1327    5.8492    0.0000 C   0  0  0  0  0  0  0  0  0  0  0  0
   -8.0544    5.8453    0.0000 C   0  0  0  0  0  0  0  0  0  0  0  0
   -6.4995    3.7432    0.0000 C   0  0  0  0  0  0  0  0  0  0  0  0
   -5.2004    2.9933    0.0000 C   0  0  0  0  0  0  0  0  0  0  0  0
   -3.8964   -0.7553    0.0000 C   0  0  0  0  0  0  0  0  0  0  0  0
   -5.1931   -1.5094    0.0000 C   0  0  0  0  0  0  0  0  0  0  0  0
   -5.1885   -3.0094    0.0000 C   0  0  0  0  0  0  0  0  0  0  0  0
   -3.8871   -3.7554    0.0000 C   0  0  0  0  0  0  0  0  0  0  0  0
   -2.5904   -3.0014    0.0000 N   0  0  0  0  0  0  0  0  0  0  0  0
   -2.5951   -1.5014    0.0000 C   0  0  0  0  0  0  0  0  0  0  0  0
  1  2  1  0  0  0  0
  2  3  1  0  0  0  0
  3  4  1  0  0  0  0
  4  5  1  0  0  0  0
  3  6  1  0  0  0  0
  6  7  2  0  0  0  0
  6  8  1  0  0  0  0
  8  9  1  0  0  0  0
  9 10  1  0  0  0  0
 10 11  1  0  0  0  0
 11 12  1  0  0  0  0
 12 13  1  0  0  0  0
 13  8  1  0  0  0  0
 11 14  1  0  0  0  0
 14 15  1  0  0  0  0
 15 16  1  0  0  0  0
 16 17  2  0  0  0  0
 17 18  1  0  0  0  0
 18 19  2  0  0  0  0
 19 20  1  0  0  0  0
 20 21  1  0  0  0  0
 21 22  1  0  0  0  0
 21 23  1  0  0  0  0
 19 24  1  0  0  0  0
 24 25  2  0  0  0  0
 25 16  1  0  0  0  0
 15 26  1  0  0  0  0
 26 27  2  0  0  0  0
 27 28  1  0  0  0  0
 28 29  2  0  0  0  0
 29 30  1  0  0  0  0
 30 31  2  0  0  0  0
 31 26  1  0  0  0  0
M  END
>  <Other ID>
EPL-BS0561

>  <sub series>
aminopiperidines reversed

>  <Source>
Epichem

>  <% growth M.myc at 100 uM>
89.08

>  <% growth M.myc at 25 uM>
86.06

>  <M. Myc IC50>


>  <M. Myc IC90>


>  <MIC50>


$$$$
Chemistry 107
  StarDrop          2D                              

 29 32  0  0  0  0  0  0  0  0999 V2000
    2.3383   -1.3500    0.0000 F   0  0  0  0  0  0  0  0  0  0  0  0
    1.2990   -0.7500    0.0000 C   0  0  0  0  0  0  0  0  0  0  0  0
    1.2990    0.7500    0.0000 C   0  0  0  0  0  0  0  0  0  0  0  0
    0.0000    1.5000    0.0000 C   0  0  0  0  0  0  0  0  0  0  0  0
    0.0000    2.7000    0.0000 Cl  0  0  0  0  0  0  0  0  0  0  0  0
   -1.2990    0.7500    0.0000 C   0  0  0  0  0  0  0  0  0  0  0  0
   -1.2990   -0.7500    0.0000 C   0  0  0  0  0  0  0  0  0  0  0  0
    0.0000   -1.5000    0.0000 C   0  0  0  0  0  0  0  0  0  0  0  0
   -0.0031   -3.0008    0.0000 C   0  0  0  0  0  0  0  0  0  0  0  0
   -1.3039   -3.7494    0.0000 N   0  0  0  0  0  0  0  0  0  0  0  0
   -1.3070   -5.2502    0.0000 C   0  0  0  0  0  0  0  0  0  0  0  0
   -2.6060   -6.0003    0.0000 C   0  0  0  0  0  0  0  0  0  0  0  0
   -2.6060   -7.5003    0.0000 C   0  0  0  0  0  0  0  0  0  0  0  0
   -1.3070   -8.2503    0.0000 N   0  0  0  0  0  0  0  0  0  0  0  0
   -0.0080   -7.5003    0.0000 C   0  0  0  0  0  0  0  0  0  0  0  0
   -0.0079   -6.0003    0.0000 C   0  0  0  0  0  0  0  0  0  0  0  0
   -1.3071   -9.7511    0.0000 C   0  0  0  0  0  0  0  0  0  0  0  0
   -2.6049  -10.5032    0.0000 C   0  0  0  0  0  0  0  0  0  0  0  0
   -2.6026  -12.0032    0.0000 C   0  0  0  0  0  0  0  0  0  0  0  0
   -1.3024  -12.7512    0.0000 C   0  0  0  0  0  0  0  0  0  0  0  0
   -1.3005  -13.9512    0.0000 Cl  0  0  0  0  0  0  0  0  0  0  0  0
   -0.0045  -11.9991    0.0000 C   0  0  0  0  0  0  0  0  0  0  0  0
   -0.0068  -10.4991    0.0000 C   0  0  0  0  0  0  0  0  0  0  0  0
    1.2953   -3.7535    0.0000 C   0  0  0  0  0  0  0  0  0  0  0  0
    1.2948   -5.2535    0.0000 C   0  0  0  0  0  0  0  0  0  0  0  0
    2.5936   -6.0040    0.0000 C   0  0  0  0  0  0  0  0  0  0  0  0
    3.8929   -5.2545    0.0000 C   0  0  0  0  0  0  0  0  0  0  0  0
    3.8935   -3.7545    0.0000 N   0  0  0  0  0  0  0  0  0  0  0  0
    2.5947   -3.0040    0.0000 C   0  0  0  0  0  0  0  0  0  0  0  0
  1  2  1  0  0  0  0
  2  3  2  0  0  0  0
  3  4  1  0  0  0  0
  4  5  1  0  0  0  0
  4  6  2  0  0  0  0
  6  7  1  0  0  0  0
  7  8  2  0  0  0  0
  8  2  1  0  0  0  0
  8  9  1  0  0  0  0
  9 10  1  0  0  0  0
 10 11  1  0  0  0  0
 11 12  1  0  0  0  0
 12 13  1  0  0  0  0
 13 14  1  0  0  0  0
 14 15  1  0  0  0  0
 15 16  1  0  0  0  0
 16 11  1  0  0  0  0
 14 17  1  0  0  0  0
 17 18  2  0  0  0  0
 18 19  1  0  0  0  0
 19 20  2  0  0  0  0
 20 21  1  0  0  0  0
 20 22  1  0  0  0  0
 22 23  2  0  0  0  0
 23 17  1  0  0  0  0
  9 24  1  0  0  0  0
 24 25  2  0  0  0  0
 25 26  1  0  0  0  0
 26 27  2  0  0  0  0
 27 28  1  0  0  0  0
 28 29  2  0  0  0  0
 29 24  1  0  0  0  0
M  END
>  <Other ID>
EPL-BS0881

>  <sub series>
aminopiperidines reversed

>  <Source>
Epichem

>  <% growth M.myc at 100 uM>
57.78

>  <% growth M.myc at 25 uM>
54.82

>  <M. Myc IC50>


>  <M. Myc IC90>


>  <MIC50>


$$$$
Chemistry 108
  StarDrop          2D                              

 29 32  0  0  0  0  0  0  0  0999 V2000
    2.3383   -1.3500    0.0000 Cl  0  0  0  0  0  0  0  0  0  0  0  0
    1.2990   -0.7500    0.0000 C   0  0  0  0  0  0  0  0  0  0  0  0
    1.2990    0.7500    0.0000 C   0  0  0  0  0  0  0  0  0  0  0  0
    0.0000    1.5000    0.0000 C   0  0  0  0  0  0  0  0  0  0  0  0
   -1.2990    0.7500    0.0000 C   0  0  0  0  0  0  0  0  0  0  0  0
   -1.2990   -0.7500    0.0000 C   0  0  0  0  0  0  0  0  0  0  0  0
    0.0000   -1.5000    0.0000 C   0  0  0  0  0  0  0  0  0  0  0  0
   -2.6003    1.4977    0.0000 C   0  0  0  0  0  0  0  0  0  0  0  0
   -3.8990    0.7455    0.0000 N   0  0  0  0  0  0  0  0  0  0  0  0
   -5.2003    1.4932    0.0000 C   0  0  0  0  0  0  0  0  0  0  0  0
   -6.4994    0.7432    0.0000 C   0  0  0  0  0  0  0  0  0  0  0  0
   -7.7985    1.4932    0.0000 C   0  0  0  0  0  0  0  0  0  0  0  0
   -7.7985    2.9932    0.0000 N   0  0  0  0  0  0  0  0  0  0  0  0
   -6.4995    3.7432    0.0000 C   0  0  0  0  0  0  0  0  0  0  0  0
   -5.2004    2.9933    0.0000 C   0  0  0  0  0  0  0  0  0  0  0  0
   -9.0982    3.7435    0.0000 C   0  0  0  0  0  0  0  0  0  0  0  0
  -10.3985    2.9956    0.0000 N   0  0  0  0  0  0  0  0  0  0  0  0
  -11.6964    3.7476    0.0000 C   0  0  0  0  0  0  0  0  0  0  0  0
  -11.6941    5.2476    0.0000 C   0  0  0  0  0  0  0  0  0  0  0  0
  -10.3939    5.9956    0.0000 C   0  0  0  0  0  0  0  0  0  0  0  0
   -9.0960    5.2436    0.0000 N   0  0  0  0  0  0  0  0  0  0  0  0
  -10.3915    7.4964    0.0000 C   0  0  0  0  0  0  0  0  0  0  0  0
  -10.3896    8.6964    0.0000 N   0  0  0  0  0  0  0  0  0  0  0  0
   -2.6030    2.9985    0.0000 C   0  0  0  0  0  0  0  0  0  0  0  0
   -3.9023    3.7481    0.0000 C   0  0  0  0  0  0  0  0  0  0  0  0
   -3.9029    5.2481    0.0000 C   0  0  0  0  0  0  0  0  0  0  0  0
   -2.6041    5.9986    0.0000 C   0  0  0  0  0  0  0  0  0  0  0  0
   -1.3048    5.2491    0.0000 N   0  0  0  0  0  0  0  0  0  0  0  0
   -1.3042    3.7491    0.0000 C   0  0  0  0  0  0  0  0  0  0  0  0
  1  2  1  0  0  0  0
  2  3  2  0  0  0  0
  3  4  1  0  0  0  0
  4  5  2  0  0  0  0
  5  6  1  0  0  0  0
  6  7  2  0  0  0  0
  7  2  1  0  0  0  0
  5  8  1  0  0  0  0
  8  9  1  0  0  0  0
  9 10  1  0  0  0  0
 10 11  1  0  0  0  0
 11 12  1  0  0  0  0
 12 13  1  0  0  0  0
 13 14  1  0  0  0  0
 14 15  1  0  0  0  0
 15 10  1  0  0  0  0
 13 16  1  0  0  0  0
 16 17  2  0  0  0  0
 17 18  1  0  0  0  0
 18 19  2  0  0  0  0
 19 20  1  0  0  0  0
 20 21  2  0  0  0  0
 21 16  1  0  0  0  0
 20 22  1  0  0  0  0
 22 23  3  0  0  0  0
  8 24  1  0  0  0  0
 24 25  2  0  0  0  0
 25 26  1  0  0  0  0
 26 27  2  0  0  0  0
 27 28  1  0  0  0  0
 28 29  2  0  0  0  0
 29 24  1  0  0  0  0
M  END
>  <Other ID>
EPL-BS0922

>  <sub series>
aminopiperidines reversed

>  <Source>
Epichem

>  <% growth M.myc at 100 uM>
5.501

>  <% growth M.myc at 25 uM>
46.74

>  <M. Myc IC50>


>  <M. Myc IC90>


>  <MIC50>


$$$$
Chemistry 2
  StarDrop          2D                              

 22 24  0  0  0  0  0  0  0  0999 V2000
    2.5956   -2.7031    0.0000 C   0  0  0  0  0  0  0  0  0  0  0  0
    2.5973   -1.5031    0.0000 C   0  0  0  0  0  0  0  0  0  0  0  0
    1.2990   -0.7500    0.0000 N   0  0  0  0  0  0  0  0  0  0  0  0
    1.2990    0.7500    0.0000 C   0  0  0  0  0  0  0  0  0  0  0  0
    0.0000    1.5000    0.0000 C   0  0  0  0  0  0  0  0  0  0  0  0
   -1.2990    0.7500    0.0000 N   0  0  0  0  0  0  0  0  0  0  0  0
   -1.2990   -0.7500    0.0000 C   0  0  0  0  0  0  0  0  0  0  0  0
    0.0000   -1.5000    0.0000 C   0  0  0  0  0  0  0  0  0  0  0  0
   -2.5998    1.4986    0.0000 C   0  0  0  0  0  0  0  0  0  0  0  0
   -3.8983    0.7460    0.0000 C   0  0  0  0  0  0  0  0  0  0  0  0
   -3.8989   -0.7540    0.0000 C   0  0  0  0  0  0  0  0  0  0  0  0
   -5.1982   -1.5035    0.0000 C   0  0  0  0  0  0  0  0  0  0  0  0
   -6.4970   -0.7530    0.0000 C   0  0  0  0  0  0  0  0  0  0  0  0
   -7.5364   -1.3527    0.0000 Cl  0  0  0  0  0  0  0  0  0  0  0  0
   -6.4964    0.7470    0.0000 C   0  0  0  0  0  0  0  0  0  0  0  0
   -5.1971    1.4965    0.0000 C   0  0  0  0  0  0  0  0  0  0  0  0
   -2.6013    2.9994    0.0000 C   0  0  0  0  0  0  0  0  0  0  0  0
   -1.3046    3.7535    0.0000 C   0  0  0  0  0  0  0  0  0  0  0  0
   -1.3092    5.2535    0.0000 C   0  0  0  0  0  0  0  0  0  0  0  0
   -2.6105    5.9995    0.0000 C   0  0  0  0  0  0  0  0  0  0  0  0
   -3.9073    5.2455    0.0000 N   0  0  0  0  0  0  0  0  0  0  0  0
   -3.9027    3.7455    0.0000 C   0  0  0  0  0  0  0  0  0  0  0  0
  1  2  1  0  0  0  0
  2  3  1  0  0  0  0
  3  4  1  0  0  0  0
  4  5  1  0  0  0  0
  5  6  1  0  0  0  0
  6  7  1  0  0  0  0
  7  8  1  0  0  0  0
  8  3  1  0  0  0  0
  6  9  1  0  0  0  0
  9 10  1  0  0  0  0
 10 11  2  0  0  0  0
 11 12  1  0  0  0  0
 12 13  2  0  0  0  0
 13 14  1  0  0  0  0
 13 15  1  0  0  0  0
 15 16  2  0  0  0  0
 16 10  1  0  0  0  0
  9 17  1  0  0  0  0
 17 18  2  0  0  0  0
 18 19  1  0  0  0  0
 19 20  2  0  0  0  0
 20 21  1  0  0  0  0
 21 22  2  0  0  0  0
 22 17  1  0  0  0  0
M  END
>  <Other ID>
EPL-BS0167

>  <sub series>
piperazines

>  <Source>
Epichem

>  <% growth M.myc at 100 uM>
56

>  <% growth M.myc at 25 uM>
97.32

>  <M. Myc IC50>


>  <M. Myc IC90>


>  <MIC50>


$$$$
Chemistry 8
  StarDrop          2D                              

 32 35  0  0  0  0  0  0  0  0999 V2000
    2.5956   -2.7031    0.0000 C   0  0  0  0  0  0  0  0  0  0  0  0
    2.5973   -1.5031    0.0000 C   0  0  0  0  0  0  0  0  0  0  0  0
    3.6375   -0.9049    0.0000 C   0  0  0  0  0  0  0  0  0  0  0  0
    1.2990   -0.7500    0.0000 C   0  0  0  0  0  0  0  0  0  0  0  0
    1.2990    0.7500    0.0000 C   0  0  0  0  0  0  0  0  0  0  0  0
    0.0000    1.5000    0.0000 C   0  0  0  0  0  0  0  0  0  0  0  0
   -1.2990    0.7500    0.0000 C   0  0  0  0  0  0  0  0  0  0  0  0
   -1.2990   -0.7500    0.0000 C   0  0  0  0  0  0  0  0  0  0  0  0
    0.0000   -1.5000    0.0000 C   0  0  0  0  0  0  0  0  0  0  0  0
   -2.5988    1.5004    0.0000 S   0  0  0  0  0  0  0  0  0  0  0  0
   -3.6378    0.9001    0.0000 O   0  0  0  0  0  0  0  0  0  0  0  0
   -2.5986    0.3004    0.0000 O   0  0  0  0  0  0  0  0  0  0  0  0
   -2.5998    3.0012    0.0000 N   0  0  0  0  0  0  0  0  0  0  0  0
   -3.8993    3.7504    0.0000 C   0  0  0  0  0  0  0  0  0  0  0  0
   -3.9002    5.2504    0.0000 C   0  0  0  0  0  0  0  0  0  0  0  0
   -2.6017    6.0012    0.0000 N   0  0  0  0  0  0  0  0  0  0  0  0
   -1.3022    5.2521    0.0000 C   0  0  0  0  0  0  0  0  0  0  0  0
   -1.3012    3.7521    0.0000 C   0  0  0  0  0  0  0  0  0  0  0  0
   -2.6006    7.5020    0.0000 C   0  0  0  0  0  0  0  0  0  0  0  0
   -1.3001    8.2511    0.0000 C   0  0  0  0  0  0  0  0  0  0  0  0
   -0.0002    7.5024    0.0000 C   0  0  0  0  0  0  0  0  0  0  0  0
    1.2981    8.2537    0.0000 C   0  0  0  0  0  0  0  0  0  0  0  0
    1.2966    9.7537    0.0000 C   0  0  0  0  0  0  0  0  0  0  0  0
    2.3352   10.3548    0.0000 Cl  0  0  0  0  0  0  0  0  0  0  0  0
   -0.0032   10.5024    0.0000 C   0  0  0  0  0  0  0  0  0  0  0  0
   -1.3015    9.7511    0.0000 C   0  0  0  0  0  0  0  0  0  0  0  0
   -3.9001    8.2529    0.0000 C   0  0  0  0  0  0  0  0  0  0  0  0
   -5.2010    7.5061    0.0000 C   0  0  0  0  0  0  0  0  0  0  0  0
   -6.4982    8.2593    0.0000 C   0  0  0  0  0  0  0  0  0  0  0  0
   -6.4945    9.7593    0.0000 C   0  0  0  0  0  0  0  0  0  0  0  0
   -5.1937   10.5061    0.0000 N   0  0  0  0  0  0  0  0  0  0  0  0
   -3.8965    9.7530    0.0000 C   0  0  0  0  0  0  0  0  0  0  0  0
  1  2  1  0  0  0  0
  2  3  1  0  0  0  0
  2  4  1  0  0  0  0
  4  5  2  0  0  0  0
  5  6  1  0  0  0  0
  6  7  2  0  0  0  0
  7  8  1  0  0  0  0
  8  9  2  0  0  0  0
  9  4  1  0  0  0  0
  7 10  1  0  0  0  0
 10 11  2  0  0  0  0
 10 12  2  0  0  0  0
 10 13  1  0  0  0  0
 13 14  1  0  0  0  0
 14 15  1  0  0  0  0
 15 16  1  0  0  0  0
 16 17  1  0  0  0  0
 17 18  1  0  0  0  0
 18 13  1  0  0  0  0
 16 19  1  0  0  0  0
 19 20  1  0  0  0  0
 20 21  2  0  0  0  0
 21 22  1  0  0  0  0
 22 23  2  0  0  0  0
 23 24  1  0  0  0  0
 23 25  1  0  0  0  0
 25 26  2  0  0  0  0
 26 20  1  0  0  0  0
 19 27  1  0  0  0  0
 27 28  2  0  0  0  0
 28 29  1  0  0  0  0
 29 30  2  0  0  0  0
 30 31  1  0  0  0  0
 31 32  2  0  0  0  0
 32 27  1  0  0  0  0
M  END
>  <Other ID>
EPL-BS0400

>  <sub series>
piperazines

>  <Source>
Epichem

>  <% growth M.myc at 100 uM>
85.32

>  <% growth M.myc at 25 uM>
92.9

>  <M. Myc IC50>


>  <M. Myc IC90>


>  <MIC50>


$$$$
Chemistry 9
  StarDrop          2D                              

 32 35  0  0  0  0  0  0  0  0999 V2000
    2.5956   -2.7031    0.0000 C   0  0  0  0  0  0  0  0  0  0  0  0
    2.5973   -1.5031    0.0000 C   0  0  0  0  0  0  0  0  0  0  0  0
    3.6375   -0.9049    0.0000 C   0  0  0  0  0  0  0  0  0  0  0  0
    1.2990   -0.7500    0.0000 C   0  0  0  0  0  0  0  0  0  0  0  0
    1.2990    0.7500    0.0000 C   0  0  0  0  0  0  0  0  0  0  0  0
    0.0000    1.5000    0.0000 C   0  0  0  0  0  0  0  0  0  0  0  0
   -1.2990    0.7500    0.0000 C   0  0  0  0  0  0  0  0  0  0  0  0
   -1.2990   -0.7500    0.0000 C   0  0  0  0  0  0  0  0  0  0  0  0
    0.0000   -1.5000    0.0000 C   0  0  0  0  0  0  0  0  0  0  0  0
   -2.5988    1.5004    0.0000 S   0  0  0  0  0  0  0  0  0  0  0  0
   -3.6378    0.9001    0.0000 O   0  0  0  0  0  0  0  0  0  0  0  0
   -2.5986    0.3004    0.0000 O   0  0  0  0  0  0  0  0  0  0  0  0
   -2.5998    3.0012    0.0000 N   0  0  0  0  0  0  0  0  0  0  0  0
   -3.8993    3.7504    0.0000 C   0  0  0  0  0  0  0  0  0  0  0  0
   -3.9002    5.2504    0.0000 C   0  0  0  0  0  0  0  0  0  0  0  0
   -2.6017    6.0012    0.0000 N   0  0  0  0  0  0  0  0  0  0  0  0
   -1.3022    5.2521    0.0000 C   0  0  0  0  0  0  0  0  0  0  0  0
   -1.3012    3.7521    0.0000 C   0  0  0  0  0  0  0  0  0  0  0  0
   -2.6006    7.5020    0.0000 C   0  0  0  0  0  0  0  0  0  0  0  0
   -1.3001    8.2511    0.0000 C   0  0  0  0  0  0  0  0  0  0  0  0
   -0.0002    7.5024    0.0000 C   0  0  0  0  0  0  0  0  0  0  0  0
    1.2981    8.2537    0.0000 C   0  0  0  0  0  0  0  0  0  0  0  0
    1.2966    9.7537    0.0000 C   0  0  0  0  0  0  0  0  0  0  0  0
    2.3352   10.3548    0.0000 Cl  0  0  0  0  0  0  0  0  0  0  0  0
   -0.0032   10.5024    0.0000 C   0  0  0  0  0  0  0  0  0  0  0  0
   -1.3015    9.7511    0.0000 C   0  0  0  0  0  0  0  0  0  0  0  0
   -3.9001    8.2529    0.0000 C   0  0  0  0  0  0  0  0  0  0  0  0
   -5.2010    7.5061    0.0000 C   0  0  0  0  0  0  0  0  0  0  0  0
   -6.4982    8.2593    0.0000 C   0  0  0  0  0  0  0  0  0  0  0  0
   -6.4945    9.7593    0.0000 C   0  0  0  0  0  0  0  0  0  0  0  0
   -5.1937   10.5061    0.0000 N   0  0  0  0  0  0  0  0  0  0  0  0
   -3.8965    9.7530    0.0000 C   0  0  0  0  0  0  0  0  0  0  0  0
  1  2  1  0  0  0  0
  2  3  1  0  0  0  0
  2  4  1  0  0  0  0
  4  5  2  0  0  0  0
  5  6  1  0  0  0  0
  6  7  2  0  0  0  0
  7  8  1  0  0  0  0
  8  9  2  0  0  0  0
  9  4  1  0  0  0  0
  7 10  1  0  0  0  0
 10 11  2  0  0  0  0
 10 12  2  0  0  0  0
 10 13  1  0  0  0  0
 13 14  1  0  0  0  0
 14 15  1  0  0  0  0
 15 16  1  0  0  0  0
 16 17  1  0  0  0  0
 17 18  1  0  0  0  0
 18 13  1  0  0  0  0
 16 19  1  0  0  0  0
 19 20  1  0  0  0  0
 20 21  2  0  0  0  0
 21 22  1  0  0  0  0
 22 23  2  0  0  0  0
 23 24  1  0  0  0  0
 23 25  1  0  0  0  0
 25 26  2  0  0  0  0
 26 20  1  0  0  0  0
 19 27  1  0  0  0  0
 27 28  2  0  0  0  0
 28 29  1  0  0  0  0
 29 30  2  0  0  0  0
 30 31  1  0  0  0  0
 31 32  2  0  0  0  0
 32 27  1  0  0  0  0
M  END
>  <Other ID>
EPL-BS0407

>  <sub series>
piperazines

>  <Source>
Epichem

>  <% growth M.myc at 100 uM>
55.69

>  <% growth M.myc at 25 uM>
68.81

>  <M. Myc IC50>


>  <M. Myc IC90>


>  <MIC50>


$$$$
Chemistry 13
  StarDrop          2D                              

 26 28  0  0  0  0  0  0  0  0999 V2000
    3.8916   -4.9570    0.0000 C   0  0  0  0  0  0  0  0  0  0  0  0
    3.8933   -3.7570    0.0000 C   0  0  0  0  0  0  0  0  0  0  0  0
    2.5951   -3.0039    0.0000 O   0  0  0  0  0  0  0  0  0  0  0  0
    2.5973   -1.5031    0.0000 C   0  0  0  0  0  0  0  0  0  0  0  0
    3.6375   -0.9049    0.0000 O   0  0  0  0  0  0  0  0  0  0  0  0
    1.2990   -0.7500    0.0000 N   0  0  0  0  0  0  0  0  0  0  0  0
    1.2990    0.7500    0.0000 C   0  0  0  0  0  0  0  0  0  0  0  0
    0.0000    1.5000    0.0000 C   0  0  0  0  0  0  0  0  0  0  0  0
   -1.2990    0.7500    0.0000 N   0  0  0  0  0  0  0  0  0  0  0  0
   -1.2990   -0.7500    0.0000 C   0  0  0  0  0  0  0  0  0  0  0  0
    0.0000   -1.5000    0.0000 C   0  0  0  0  0  0  0  0  0  0  0  0
   -2.5998    1.4986    0.0000 C   0  0  0  0  0  0  0  0  0  0  0  0
   -3.8983    0.7460    0.0000 C   0  0  0  0  0  0  0  0  0  0  0  0
   -3.8989   -0.7540    0.0000 C   0  0  0  0  0  0  0  0  0  0  0  0
   -5.1982   -1.5035    0.0000 C   0  0  0  0  0  0  0  0  0  0  0  0
   -6.4970   -0.7530    0.0000 C   0  0  0  0  0  0  0  0  0  0  0  0
   -6.4964    0.7470    0.0000 N   0  0  0  0  0  0  0  0  0  0  0  0
   -5.1971    1.4965    0.0000 C   0  0  0  0  0  0  0  0  0  0  0  0
   -2.6013    2.9994    0.0000 C   0  0  0  0  0  0  0  0  0  0  0  0
   -3.9027    3.7455    0.0000 C   0  0  0  0  0  0  0  0  0  0  0  0
   -3.9073    5.2455    0.0000 C   0  0  0  0  0  0  0  0  0  0  0  0
   -2.6105    5.9995    0.0000 C   0  0  0  0  0  0  0  0  0  0  0  0
   -2.6142    7.1995    0.0000 Cl  0  0  0  0  0  0  0  0  0  0  0  0
   -1.3092    5.2535    0.0000 C   0  0  0  0  0  0  0  0  0  0  0  0
   -1.3046    3.7535    0.0000 C   0  0  0  0  0  0  0  0  0  0  0  0
   -0.2635    3.1567    0.0000 F   0  0  0  0  0  0  0  0  0  0  0  0
  1  2  1  0  0  0  0
  2  3  1  0  0  0  0
  3  4  1  0  0  0  0
  4  5  2  0  0  0  0
  4  6  1  0  0  0  0
  6  7  1  0  0  0  0
  7  8  1  0  0  0  0
  8  9  1  0  0  0  0
  9 10  1  0  0  0  0
 10 11  1  0  0  0  0
 11  6  1  0  0  0  0
  9 12  1  0  0  0  0
 12 13  1  0  0  0  0
 13 14  2  0  0  0  0
 14 15  1  0  0  0  0
 15 16  2  0  0  0  0
 16 17  1  0  0  0  0
 17 18  2  0  0  0  0
 18 13  1  0  0  0  0
 12 19  1  0  0  0  0
 19 20  2  0  0  0  0
 20 21  1  0  0  0  0
 21 22  2  0  0  0  0
 22 23  1  0  0  0  0
 22 24  1  0  0  0  0
 24 25  2  0  0  0  0
 25 19  1  0  0  0  0
 25 26  1  0  0  0  0
M  END
>  <Other ID>
EPL-BS0495

>  <sub series>
piperazines

>  <Source>
Epichem

>  <% growth M.myc at 100 uM>
0.9241

>  <% growth M.myc at 25 uM>
1.016

>  <M. Myc IC50>
0.28

>  <M. Myc IC90>
0.46

>  <MIC50>
4

$$$$
Chemistry 21
  StarDrop          2D                              

 29 32  0  0  0  0  0  0  0  0999 V2000
    4.9460   -3.4943    0.0000 C   0  0  0  0  0  0  0  0  0  0  0  0
    3.8056   -3.8679    0.0000 C   0  0  0  0  0  0  0  0  0  0  0  0
    3.3372   -5.2929    0.0000 N   0  0  0  0  0  0  0  0  0  0  0  0
    1.8372   -5.2877    0.0000 C   0  0  0  0  0  0  0  0  0  0  0  0
    1.3786   -3.8595    0.0000 S   0  0  0  0  0  0  0  0  0  0  0  0
    2.5951   -3.0039    0.0000 C   0  0  0  0  0  0  0  0  0  0  0  0
    2.5973   -1.5031    0.0000 C   0  0  0  0  0  0  0  0  0  0  0  0
    3.6375   -0.9049    0.0000 O   0  0  0  0  0  0  0  0  0  0  0  0
    1.2990   -0.7500    0.0000 N   0  0  0  0  0  0  0  0  0  0  0  0
    1.2990    0.7500    0.0000 C   0  0  0  0  0  0  0  0  0  0  0  0
    0.0000    1.5000    0.0000 C   0  0  0  0  0  0  0  0  0  0  0  0
   -1.2990    0.7500    0.0000 N   0  0  0  0  0  0  0  0  0  0  0  0
   -1.2990   -0.7500    0.0000 C   0  0  0  0  0  0  0  0  0  0  0  0
    0.0000   -1.5000    0.0000 C   0  0  0  0  0  0  0  0  0  0  0  0
   -2.5998    1.4986    0.0000 C   0  0  0  0  0  0  0  0  0  0  0  0
   -3.8983    0.7460    0.0000 C   0  0  0  0  0  0  0  0  0  0  0  0
   -3.8989   -0.7540    0.0000 C   0  0  0  0  0  0  0  0  0  0  0  0
   -5.1982   -1.5035    0.0000 C   0  0  0  0  0  0  0  0  0  0  0  0
   -6.4970   -0.7530    0.0000 C   0  0  0  0  0  0  0  0  0  0  0  0
   -6.4964    0.7470    0.0000 C   0  0  0  0  0  0  0  0  0  0  0  0
   -5.1971    1.4965    0.0000 C   0  0  0  0  0  0  0  0  0  0  0  0
   -7.7970   -1.5030    0.0000 C   0  0  0  0  0  0  0  0  0  0  0  0
   -8.8364   -2.1026    0.0000 N   0  0  0  0  0  0  0  0  0  0  0  0
   -2.6013    2.9994    0.0000 C   0  0  0  0  0  0  0  0  0  0  0  0
   -1.3046    3.7535    0.0000 C   0  0  0  0  0  0  0  0  0  0  0  0
   -1.3092    5.2535    0.0000 C   0  0  0  0  0  0  0  0  0  0  0  0
   -2.6105    5.9995    0.0000 C   0  0  0  0  0  0  0  0  0  0  0  0
   -3.9073    5.2455    0.0000 N   0  0  0  0  0  0  0  0  0  0  0  0
   -3.9027    3.7455    0.0000 C   0  0  0  0  0  0  0  0  0  0  0  0
  1  2  1  0  0  0  0
  2  3  1  0  0  0  0
  3  4  2  0  0  0  0
  4  5  1  0  0  0  0
  5  6  1  0  0  0  0
  6  2  2  0  0  0  0
  6  7  1  0  0  0  0
  7  8  2  0  0  0  0
  7  9  1  0  0  0  0
  9 10  1  0  0  0  0
 10 11  1  0  0  0  0
 11 12  1  0  0  0  0
 12 13  1  0  0  0  0
 13 14  1  0  0  0  0
 14  9  1  0  0  0  0
 12 15  1  0  0  0  0
 15 16  1  0  0  0  0
 16 17  2  0  0  0  0
 17 18  1  0  0  0  0
 18 19  2  0  0  0  0
 19 20  1  0  0  0  0
 20 21  2  0  0  0  0
 21 16  1  0  0  0  0
 19 22  1  0  0  0  0
 22 23  3  0  0  0  0
 15 24  1  0  0  0  0
 24 25  2  0  0  0  0
 25 26  1  0  0  0  0
 26 27  2  0  0  0  0
 27 28  1  0  0  0  0
 28 29  2  0  0  0  0
 29 24  1  0  0  0  0
M  END
>  <Other ID>
EPL-BS0690

>  <sub series>
piperazines

>  <Source>
Epichem

>  <% growth M.myc at 100 uM>
86

>  <% growth M.myc at 25 uM>
92.06

>  <M. Myc IC50>


>  <M. Myc IC90>


>  <MIC50>


$$$$
Chemistry 41
  StarDrop          2D                              

 28 30  0  0  0  0  0  0  0  0999 V2000
    2.3383   -1.3500    0.0000 F   0  0  0  0  0  0  0  0  0  0  0  0
    1.2990   -0.7500    0.0000 C   0  0  0  0  0  0  0  0  0  0  0  0
    1.2990    0.7500    0.0000 C   0  0  0  0  0  0  0  0  0  0  0  0
    0.0000    1.5000    0.0000 C   0  0  0  0  0  0  0  0  0  0  0  0
    0.0000    2.7000    0.0000 Cl  0  0  0  0  0  0  0  0  0  0  0  0
   -1.2990    0.7500    0.0000 C   0  0  0  0  0  0  0  0  0  0  0  0
   -1.2990   -0.7500    0.0000 C   0  0  0  0  0  0  0  0  0  0  0  0
    0.0000   -1.5000    0.0000 C   0  0  0  0  0  0  0  0  0  0  0  0
   -0.0031   -3.0008    0.0000 C   0  0  0  0  0  0  0  0  0  0  0  0
    1.2953   -3.7535    0.0000 N   0  0  0  0  0  0  0  0  0  0  0  0
    1.2948   -5.2535    0.0000 C   0  0  0  0  0  0  0  0  0  0  0  0
    2.5936   -6.0040    0.0000 C   0  0  0  0  0  0  0  0  0  0  0  0
    3.8929   -5.2545    0.0000 N   0  0  0  0  0  0  0  0  0  0  0  0
    5.1939   -6.0027    0.0000 C   0  0  0  0  0  0  0  0  0  0  0  0
    6.4929   -5.2510    0.0000 O   0  0  0  0  0  0  0  0  0  0  0  0
    7.7939   -5.9992    0.0000 C   0  0  0  0  0  0  0  0  0  0  0  0
    8.8325   -5.3981    0.0000 C   0  0  0  0  0  0  0  0  0  0  0  0
    7.7956   -7.1992    0.0000 C   0  0  0  0  0  0  0  0  0  0  0  0
    8.8339   -6.5979    0.0000 C   0  0  0  0  0  0  0  0  0  0  0  0
    5.1956   -7.2027    0.0000 O   0  0  0  0  0  0  0  0  0  0  0  0
    3.8935   -3.7545    0.0000 C   0  0  0  0  0  0  0  0  0  0  0  0
    2.5947   -3.0040    0.0000 C   0  0  0  0  0  0  0  0  0  0  0  0
   -1.3039   -3.7494    0.0000 C   0  0  0  0  0  0  0  0  0  0  0  0
   -1.3092   -5.2494    0.0000 C   0  0  0  0  0  0  0  0  0  0  0  0
   -2.6108   -5.9949    0.0000 C   0  0  0  0  0  0  0  0  0  0  0  0
   -3.9072   -5.2404    0.0000 C   0  0  0  0  0  0  0  0  0  0  0  0
   -3.9020   -3.7404    0.0000 N   0  0  0  0  0  0  0  0  0  0  0  0
   -2.6004   -2.9949    0.0000 C   0  0  0  0  0  0  0  0  0  0  0  0
  1  2  1  0  0  0  0
  2  3  2  0  0  0  0
  3  4  1  0  0  0  0
  4  5  1  0  0  0  0
  4  6  2  0  0  0  0
  6  7  1  0  0  0  0
  7  8  2  0  0  0  0
  8  2  1  0  0  0  0
  8  9  1  0  0  0  0
  9 10  1  0  0  0  0
 10 11  1  0  0  0  0
 11 12  1  0  0  0  0
 12 13  1  0  0  0  0
 13 14  1  0  0  0  0
 14 15  1  0  0  0  0
 15 16  1  0  0  0  0
 16 17  1  0  0  0  0
 16 18  1  0  0  0  0
 16 19  1  0  0  0  0
 14 20  2  0  0  0  0
 13 21  1  0  0  0  0
 21 22  1  0  0  0  0
 22 10  1  0  0  0  0
  9 23  1  0  0  0  0
 23 24  2  0  0  0  0
 24 25  1  0  0  0  0
 25 26  2  0  0  0  0
 26 27  1  0  0  0  0
 27 28  2  0  0  0  0
 28 23  1  0  0  0  0
M  END
>  <Other ID>
HPD12_1

>  <sub series>
piperazines

>  <Source>
Sydney

>  <% growth M.myc at 100 uM>
-0.41

>  <% growth M.myc at 25 uM>


>  <M. Myc IC50>
1.55

>  <M. Myc IC90>
3.48

>  <MIC50>
2

$$$$
Chemistry 42
  StarDrop          2D                              

 26 28  0  0  0  0  0  0  0  0999 V2000
    2.3383   -1.3500    0.0000 F   0  0  0  0  0  0  0  0  0  0  0  0
    1.2990   -0.7500    0.0000 C   0  0  0  0  0  0  0  0  0  0  0  0
    1.2990    0.7500    0.0000 C   0  0  0  0  0  0  0  0  0  0  0  0
    0.0000    1.5000    0.0000 C   0  0  0  0  0  0  0  0  0  0  0  0
    0.0000    2.7000    0.0000 Cl  0  0  0  0  0  0  0  0  0  0  0  0
   -1.2990    0.7500    0.0000 C   0  0  0  0  0  0  0  0  0  0  0  0
   -1.2990   -0.7500    0.0000 C   0  0  0  0  0  0  0  0  0  0  0  0
    0.0000   -1.5000    0.0000 C   0  0  0  0  0  0  0  0  0  0  0  0
   -0.0031   -3.0008    0.0000 C   0  0  0  0  0  0  0  0  0  0  0  0
    1.2953   -3.7535    0.0000 N   0  0  0  0  0  0  0  0  0  0  0  0
    1.2948   -5.2535    0.0000 C   0  0  0  0  0  0  0  0  0  0  0  0
    2.5936   -6.0040    0.0000 C   0  0  0  0  0  0  0  0  0  0  0  0
    3.8929   -5.2545    0.0000 N   0  0  0  0  0  0  0  0  0  0  0  0
    5.1939   -6.0027    0.0000 C   0  0  0  0  0  0  0  0  0  0  0  0
    6.4929   -5.2510    0.0000 O   0  0  0  0  0  0  0  0  0  0  0  0
    7.7939   -5.9992    0.0000 C   0  0  0  0  0  0  0  0  0  0  0  0
    8.8325   -5.3981    0.0000 C   0  0  0  0  0  0  0  0  0  0  0  0
    5.1956   -7.2027    0.0000 O   0  0  0  0  0  0  0  0  0  0  0  0
    3.8935   -3.7545    0.0000 C   0  0  0  0  0  0  0  0  0  0  0  0
    2.5947   -3.0040    0.0000 C   0  0  0  0  0  0  0  0  0  0  0  0
   -1.3039   -3.7494    0.0000 C   0  0  0  0  0  0  0  0  0  0  0  0
   -1.3092   -5.2494    0.0000 C   0  0  0  0  0  0  0  0  0  0  0  0
   -2.6108   -5.9949    0.0000 C   0  0  0  0  0  0  0  0  0  0  0  0
   -3.9072   -5.2404    0.0000 C   0  0  0  0  0  0  0  0  0  0  0  0
   -3.9020   -3.7404    0.0000 N   0  0  0  0  0  0  0  0  0  0  0  0
   -2.6004   -2.9949    0.0000 C   0  0  0  0  0  0  0  0  0  0  0  0
  1  2  1  0  0  0  0
  2  3  2  0  0  0  0
  3  4  1  0  0  0  0
  4  5  1  0  0  0  0
  4  6  2  0  0  0  0
  6  7  1  0  0  0  0
  7  8  2  0  0  0  0
  8  2  1  0  0  0  0
  8  9  1  0  0  0  0
  9 10  1  0  0  0  0
 10 11  1  0  0  0  0
 11 12  1  0  0  0  0
 12 13  1  0  0  0  0
 13 14  1  0  0  0  0
 14 15  1  0  0  0  0
 15 16  1  0  0  0  0
 16 17  1  0  0  0  0
 14 18  2  0  0  0  0
 13 19  1  0  0  0  0
 19 20  1  0  0  0  0
 20 10  1  0  0  0  0
  9 21  1  0  0  0  0
 21 22  2  0  0  0  0
 22 23  1  0  0  0  0
 23 24  2  0  0  0  0
 24 25  1  0  0  0  0
 25 26  2  0  0  0  0
 26 21  1  0  0  0  0
M  END
>  <Other ID>
HPD14_1, EPL-BS0495

>  <sub series>
piperazines

>  <Source>
Sydney

>  <% growth M.myc at 100 uM>
-0.32

>  <% growth M.myc at 25 uM>


>  <M. Myc IC50>
0.03

>  <M. Myc IC90>
0.75

>  <MIC50>
0.5

$$$$
Chemistry 47
  StarDrop          2D                              

 28 30  0  0  0  0  0  0  0  0999 V2000
    2.3383   -1.3500    0.0000 F   0  0  0  0  0  0  0  0  0  0  0  0
    1.2990   -0.7500    0.0000 C   0  0  0  0  0  0  0  0  0  0  0  0
    1.2990    0.7500    0.0000 C   0  0  0  0  0  0  0  0  0  0  0  0
    0.0000    1.5000    0.0000 C   0  0  0  0  0  0  0  0  0  0  0  0
    0.0000    2.7000    0.0000 Cl  0  0  0  0  0  0  0  0  0  0  0  0
   -1.2990    0.7500    0.0000 C   0  0  0  0  0  0  0  0  0  0  0  0
   -1.2990   -0.7500    0.0000 C   0  0  0  0  0  0  0  0  0  0  0  0
    0.0000   -1.5000    0.0000 C   0  0  0  0  0  0  0  0  0  0  0  0
   -0.0031   -3.0008    0.0000 C   0  0  0  0  0  0  0  0  0  0  0  0
    1.2953   -3.7535    0.0000 N   0  0  0  0  0  0  0  0  0  0  0  0
    1.2948   -5.2535    0.0000 C   0  0  0  0  0  0  0  0  0  0  0  0
    2.5936   -6.0040    0.0000 C   0  0  0  0  0  0  0  0  0  0  0  0
    3.8929   -5.2545    0.0000 N   0  0  0  0  0  0  0  0  0  0  0  0
    5.1909   -6.0081    0.0000 C   0  0  0  0  0  0  0  0  0  0  0  0
    5.1882   -7.5089    0.0000 O   0  0  0  0  0  0  0  0  0  0  0  0
    6.4861   -8.2625    0.0000 C   0  0  0  0  0  0  0  0  0  0  0  0
    6.4839   -9.4625    0.0000 C   0  0  0  0  0  0  0  0  0  0  0  0
    6.2314   -5.4103    0.0000 O   0  0  0  0  0  0  0  0  0  0  0  0
    3.8935   -3.7545    0.0000 C   0  0  0  0  0  0  0  0  0  0  0  0
    4.9180   -4.3793    0.0000 C   0  0  0  0  0  0  0  0  0  0  0  0
    3.8657   -2.5548    0.0000 C   0  0  0  0  0  0  0  0  0  0  0  0
    2.5947   -3.0040    0.0000 C   0  0  0  0  0  0  0  0  0  0  0  0
   -1.3039   -3.7494    0.0000 C   0  0  0  0  0  0  0  0  0  0  0  0
   -1.3092   -5.2494    0.0000 C   0  0  0  0  0  0  0  0  0  0  0  0
   -2.6108   -5.9949    0.0000 C   0  0  0  0  0  0  0  0  0  0  0  0
   -3.9072   -5.2404    0.0000 C   0  0  0  0  0  0  0  0  0  0  0  0
   -3.9020   -3.7404    0.0000 N   0  0  0  0  0  0  0  0  0  0  0  0
   -2.6004   -2.9949    0.0000 C   0  0  0  0  0  0  0  0  0  0  0  0
  1  2  1  0  0  0  0
  2  3  2  0  0  0  0
  3  4  1  0  0  0  0
  4  5  1  0  0  0  0
  4  6  2  0  0  0  0
  6  7  1  0  0  0  0
  7  8  2  0  0  0  0
  8  2  1  0  0  0  0
  8  9  1  0  0  0  0
  9 10  1  0  0  0  0
 10 11  1  0  0  0  0
 11 12  1  0  0  0  0
 12 13  1  0  0  0  0
 13 14  1  0  0  0  0
 14 15  1  0  0  0  0
 15 16  1  0  0  0  0
 16 17  1  0  0  0  0
 14 18  2  0  0  0  0
 13 19  1  0  0  0  0
 19 20  1  0  0  0  0
 19 21  1  0  0  0  0
 19 22  1  0  0  0  0
 22 10  1  0  0  0  0
  9 23  1  0  0  0  0
 23 24  2  0  0  0  0
 24 25  1  0  0  0  0
 25 26  2  0  0  0  0
 26 27  1  0  0  0  0
 27 28  2  0  0  0  0
 28 23  1  0  0  0  0
M  END
>  <Other ID>
HPD27_2

>  <sub series>
piperazines

>  <Source>
Sydney

>  <% growth M.myc at 100 uM>


>  <% growth M.myc at 25 uM>


>  <M. Myc IC50>


>  <M. Myc IC90>


>  <MIC50>


$$$$
Chemistry 48
  StarDrop          2D                              

 27 29  0  0  0  0  0  0  0  0999 V2000
    2.3383   -1.3500    0.0000 F   0  0  0  0  0  0  0  0  0  0  0  0
    1.2990   -0.7500    0.0000 C   0  0  0  0  0  0  0  0  0  0  0  0
    1.2990    0.7500    0.0000 C   0  0  0  0  0  0  0  0  0  0  0  0
    0.0000    1.5000    0.0000 C   0  0  0  0  0  0  0  0  0  0  0  0
    0.0000    2.7000    0.0000 Cl  0  0  0  0  0  0  0  0  0  0  0  0
   -1.2990    0.7500    0.0000 C   0  0  0  0  0  0  0  0  0  0  0  0
   -1.2990   -0.7500    0.0000 C   0  0  0  0  0  0  0  0  0  0  0  0
    0.0000   -1.5000    0.0000 C   0  0  0  0  0  0  0  0  0  0  0  0
   -0.0031   -3.0008    0.0000 C   0  0  0  0  0  0  0  0  0  0  0  0
    1.2953   -3.7535    0.0000 N   0  0  0  0  0  0  0  0  0  0  0  0
    2.5947   -3.0040    0.0000 C   0  0  0  0  0  0  0  0  0  0  0  0
    3.8935   -3.7545    0.0000 C   0  0  0  0  0  0  0  0  0  0  0  0
    3.8929   -5.2545    0.0000 N   0  0  0  0  0  0  0  0  0  0  0  0
    5.1908   -6.0081    0.0000 C   0  0  0  0  0  0  0  0  0  0  0  0
    5.1881   -7.5089    0.0000 O   0  0  0  0  0  0  0  0  0  0  0  0
    6.4861   -8.2625    0.0000 C   0  0  0  0  0  0  0  0  0  0  0  0
    6.4839   -9.4625    0.0000 C   0  0  0  0  0  0  0  0  0  0  0  0
    6.2313   -5.4103    0.0000 O   0  0  0  0  0  0  0  0  0  0  0  0
    2.5936   -6.0040    0.0000 C   0  0  0  0  0  0  0  0  0  0  0  0
    1.2948   -5.2535    0.0000 C   0  0  0  0  0  0  0  0  0  0  0  0
    0.2554   -5.8532    0.0000 C   0  0  0  0  0  0  0  0  0  0  0  0
   -1.3039   -3.7494    0.0000 C   0  0  0  0  0  0  0  0  0  0  0  0
   -1.3092   -5.2494    0.0000 C   0  0  0  0  0  0  0  0  0  0  0  0
   -2.6108   -5.9949    0.0000 C   0  0  0  0  0  0  0  0  0  0  0  0
   -3.9072   -5.2404    0.0000 C   0  0  0  0  0  0  0  0  0  0  0  0
   -3.9020   -3.7404    0.0000 N   0  0  0  0  0  0  0  0  0  0  0  0
   -2.6004   -2.9949    0.0000 C   0  0  0  0  0  0  0  0  0  0  0  0
  1  2  1  0  0  0  0
  2  3  2  0  0  0  0
  3  4  1  0  0  0  0
  4  5  1  0  0  0  0
  4  6  2  0  0  0  0
  6  7  1  0  0  0  0
  7  8  2  0  0  0  0
  8  2  1  0  0  0  0
  8  9  1  0  0  0  0
  9 10  1  0  0  0  0
 10 11  1  0  0  0  0
 11 12  1  0  0  0  0
 12 13  1  0  0  0  0
 13 14  1  0  0  0  0
 14 15  1  0  0  0  0
 15 16  1  0  0  0  0
 16 17  1  0  0  0  0
 14 18  2  0  0  0  0
 13 19  1  0  0  0  0
 19 20  1  0  0  0  0
 20 10  1  0  0  0  0
 20 21  1  0  0  0  0
  9 22  1  0  0  0  0
 22 23  2  0  0  0  0
 23 24  1  0  0  0  0
 24 25  2  0  0  0  0
 25 26  1  0  0  0  0
 26 27  2  0  0  0  0
 27 22  1  0  0  0  0
M  END
>  <Other ID>
HPD28_1F2

>  <sub series>
piperazines

>  <Source>
Sydney

>  <% growth M.myc at 100 uM>


>  <% growth M.myc at 25 uM>


>  <M. Myc IC50>


>  <M. Myc IC90>


>  <MIC50>


$$$$
Chemistry 49
  StarDrop          2D                              

 27 29  0  0  0  0  0  0  0  0999 V2000
    2.3383   -1.3500    0.0000 F   0  0  0  0  0  0  0  0  0  0  0  0
    1.2990   -0.7500    0.0000 C   0  0  0  0  0  0  0  0  0  0  0  0
    1.2990    0.7500    0.0000 C   0  0  0  0  0  0  0  0  0  0  0  0
    0.0000    1.5000    0.0000 C   0  0  0  0  0  0  0  0  0  0  0  0
    0.0000    2.7000    0.0000 Cl  0  0  0  0  0  0  0  0  0  0  0  0
   -1.2990    0.7500    0.0000 C   0  0  0  0  0  0  0  0  0  0  0  0
   -1.2990   -0.7500    0.0000 C   0  0  0  0  0  0  0  0  0  0  0  0
    0.0000   -1.5000    0.0000 C   0  0  0  0  0  0  0  0  0  0  0  0
   -0.0031   -3.0008    0.0000 C   0  0  0  0  0  0  0  0  0  0  0  0
    1.2953   -3.7535    0.0000 N   0  0  0  0  0  0  0  0  0  0  0  0
    2.5947   -3.0040    0.0000 C   0  0  0  0  0  0  0  0  0  0  0  0
    3.8935   -3.7545    0.0000 C   0  0  0  0  0  0  0  0  0  0  0  0
    3.8929   -5.2545    0.0000 N   0  0  0  0  0  0  0  0  0  0  0  0
    5.1908   -6.0081    0.0000 C   0  0  0  0  0  0  0  0  0  0  0  0
    5.1881   -7.5089    0.0000 O   0  0  0  0  0  0  0  0  0  0  0  0
    6.4861   -8.2625    0.0000 C   0  0  0  0  0  0  0  0  0  0  0  0
    6.4839   -9.4625    0.0000 C   0  0  0  0  0  0  0  0  0  0  0  0
    6.2313   -5.4103    0.0000 O   0  0  0  0  0  0  0  0  0  0  0  0
    2.5936   -6.0040    0.0000 C   0  0  0  0  0  0  0  0  0  0  0  0
    1.2948   -5.2535    0.0000 C   0  0  0  0  0  0  0  0  0  0  0  0
    0.2554   -5.8532    0.0000 C   0  0  0  0  0  0  0  0  0  0  0  0
   -1.3039   -3.7494    0.0000 C   0  0  0  0  0  0  0  0  0  0  0  0
   -1.3092   -5.2494    0.0000 C   0  0  0  0  0  0  0  0  0  0  0  0
   -2.6108   -5.9949    0.0000 C   0  0  0  0  0  0  0  0  0  0  0  0
   -3.9072   -5.2404    0.0000 C   0  0  0  0  0  0  0  0  0  0  0  0
   -3.9020   -3.7404    0.0000 N   0  0  0  0  0  0  0  0  0  0  0  0
   -2.6004   -2.9949    0.0000 C   0  0  0  0  0  0  0  0  0  0  0  0
  1  2  1  0  0  0  0
  2  3  2  0  0  0  0
  3  4  1  0  0  0  0
  4  5  1  0  0  0  0
  4  6  2  0  0  0  0
  6  7  1  0  0  0  0
  7  8  2  0  0  0  0
  8  2  1  0  0  0  0
  8  9  1  0  0  0  0
  9 10  1  0  0  0  0
 10 11  1  0  0  0  0
 11 12  1  0  0  0  0
 12 13  1  0  0  0  0
 13 14  1  0  0  0  0
 14 15  1  0  0  0  0
 15 16  1  0  0  0  0
 16 17  1  0  0  0  0
 14 18  2  0  0  0  0
 13 19  1  0  0  0  0
 19 20  1  0  0  0  0
 20 10  1  0  0  0  0
 20 21  1  0  0  0  0
  9 22  1  0  0  0  0
 22 23  2  0  0  0  0
 23 24  1  0  0  0  0
 24 25  2  0  0  0  0
 25 26  1  0  0  0  0
 26 27  2  0  0  0  0
 27 22  1  0  0  0  0
M  END
>  <Other ID>
HPD28_1F3

>  <sub series>
piperazines

>  <Source>
Sydney

>  <% growth M.myc at 100 uM>


>  <% growth M.myc at 25 uM>


>  <M. Myc IC50>


>  <M. Myc IC90>


>  <MIC50>


$$$$
Chemistry 50
  StarDrop          2D                              

 31 34  0  0  0  0  0  0  0  0999 V2000
    2.3383   -1.3500    0.0000 F   0  0  0  0  0  0  0  0  0  0  0  0
    1.2990   -0.7500    0.0000 C   0  0  0  0  0  0  0  0  0  0  0  0
    1.2990    0.7500    0.0000 C   0  0  0  0  0  0  0  0  0  0  0  0
    0.0000    1.5000    0.0000 C   0  0  0  0  0  0  0  0  0  0  0  0
    0.0000    2.7000    0.0000 Cl  0  0  0  0  0  0  0  0  0  0  0  0
   -1.2990    0.7500    0.0000 C   0  0  0  0  0  0  0  0  0  0  0  0
   -1.2990   -0.7500    0.0000 C   0  0  0  0  0  0  0  0  0  0  0  0
    0.0000   -1.5000    0.0000 C   0  0  0  0  0  0  0  0  0  0  0  0
   -0.0031   -3.0008    0.0000 C   0  0  0  0  0  0  0  0  0  0  0  0
    1.2953   -3.7535    0.0000 N   0  0  0  0  0  0  0  0  0  0  0  0
    1.2948   -5.2535    0.0000 C   0  0  0  0  0  0  0  0  0  0  0  0
    2.5936   -6.0040    0.0000 C   0  0  0  0  0  0  0  0  0  0  0  0
    3.8929   -5.2545    0.0000 N   0  0  0  0  0  0  0  0  0  0  0  0
    5.1939   -6.0027    0.0000 C   0  0  0  0  0  0  0  0  0  0  0  0
    6.4929   -5.2510    0.0000 O   0  0  0  0  0  0  0  0  0  0  0  0
    7.7939   -5.9992    0.0000 C   0  0  0  0  0  0  0  0  0  0  0  0
    9.0929   -5.2474    0.0000 C   0  0  0  0  0  0  0  0  0  0  0  0
   10.3943   -5.9933    0.0000 C   0  0  0  0  0  0  0  0  0  0  0  0
   11.6910   -5.2393    0.0000 C   0  0  0  0  0  0  0  0  0  0  0  0
   11.6864   -3.7393    0.0000 C   0  0  0  0  0  0  0  0  0  0  0  0
   10.3850   -2.9933    0.0000 C   0  0  0  0  0  0  0  0  0  0  0  0
    9.0883   -3.7473    0.0000 C   0  0  0  0  0  0  0  0  0  0  0  0
    5.1956   -7.2027    0.0000 O   0  0  0  0  0  0  0  0  0  0  0  0
    3.8935   -3.7545    0.0000 C   0  0  0  0  0  0  0  0  0  0  0  0
    2.5947   -3.0040    0.0000 C   0  0  0  0  0  0  0  0  0  0  0  0
   -1.3039   -3.7494    0.0000 C   0  0  0  0  0  0  0  0  0  0  0  0
   -1.3092   -5.2494    0.0000 C   0  0  0  0  0  0  0  0  0  0  0  0
   -2.6108   -5.9949    0.0000 C   0  0  0  0  0  0  0  0  0  0  0  0
   -3.9072   -5.2404    0.0000 C   0  0  0  0  0  0  0  0  0  0  0  0
   -3.9020   -3.7404    0.0000 N   0  0  0  0  0  0  0  0  0  0  0  0
   -2.6004   -2.9949    0.0000 C   0  0  0  0  0  0  0  0  0  0  0  0
  1  2  1  0  0  0  0
  2  3  2  0  0  0  0
  3  4  1  0  0  0  0
  4  5  1  0  0  0  0
  4  6  2  0  0  0  0
  6  7  1  0  0  0  0
  7  8  2  0  0  0  0
  8  2  1  0  0  0  0
  8  9  1  0  0  0  0
  9 10  1  0  0  0  0
 10 11  1  0  0  0  0
 11 12  1  0  0  0  0
 12 13  1  0  0  0  0
 13 14  1  0  0  0  0
 14 15  1  0  0  0  0
 15 16  1  0  0  0  0
 16 17  1  0  0  0  0
 17 18  2  0  0  0  0
 18 19  1  0  0  0  0
 19 20  2  0  0  0  0
 20 21  1  0  0  0  0
 21 22  2  0  0  0  0
 22 17  1  0  0  0  0
 14 23  2  0  0  0  0
 13 24  1  0  0  0  0
 24 25  1  0  0  0  0
 25 10  1  0  0  0  0
  9 26  1  0  0  0  0
 26 27  2  0  0  0  0
 27 28  1  0  0  0  0
 28 29  2  0  0  0  0
 29 30  1  0  0  0  0
 30 31  2  0  0  0  0
 31 26  1  0  0  0  0
M  END
>  <Other ID>
HPD29_1

>  <sub series>
piperazines

>  <Source>
Sydney

>  <% growth M.myc at 100 uM>


>  <% growth M.myc at 25 uM>


>  <M. Myc IC50>


>  <M. Myc IC90>


>  <MIC50>


$$$$
Chemistry 51
  StarDrop          2D                              

 25 27  0  0  0  0  0  0  0  0999 V2000
    2.3383   -1.3500    0.0000 F   0  0  0  0  0  0  0  0  0  0  0  0
    1.2990   -0.7500    0.0000 C   0  0  0  0  0  0  0  0  0  0  0  0
    1.2990    0.7500    0.0000 C   0  0  0  0  0  0  0  0  0  0  0  0
    0.0000    1.5000    0.0000 C   0  0  0  0  0  0  0  0  0  0  0  0
    0.0000    2.7000    0.0000 Cl  0  0  0  0  0  0  0  0  0  0  0  0
   -1.2990    0.7500    0.0000 C   0  0  0  0  0  0  0  0  0  0  0  0
   -1.2990   -0.7500    0.0000 C   0  0  0  0  0  0  0  0  0  0  0  0
    0.0000   -1.5000    0.0000 C   0  0  0  0  0  0  0  0  0  0  0  0
   -0.0031   -3.0008    0.0000 C   0  0  0  0  0  0  0  0  0  0  0  0
    1.2953   -3.7535    0.0000 N   0  0  0  0  0  0  0  0  0  0  0  0
    1.2948   -5.2535    0.0000 C   0  0  0  0  0  0  0  0  0  0  0  0
    2.5936   -6.0040    0.0000 C   0  0  0  0  0  0  0  0  0  0  0  0
    3.8929   -5.2545    0.0000 N   0  0  0  0  0  0  0  0  0  0  0  0
    5.1939   -6.0027    0.0000 C   0  0  0  0  0  0  0  0  0  0  0  0
    6.4929   -5.2510    0.0000 O   0  0  0  0  0  0  0  0  0  0  0  0
    7.5331   -5.8492    0.0000 C   0  0  0  0  0  0  0  0  0  0  0  0
    5.1956   -7.2027    0.0000 O   0  0  0  0  0  0  0  0  0  0  0  0
    3.8935   -3.7545    0.0000 C   0  0  0  0  0  0  0  0  0  0  0  0
    2.5947   -3.0040    0.0000 C   0  0  0  0  0  0  0  0  0  0  0  0
   -1.3039   -3.7494    0.0000 C   0  0  0  0  0  0  0  0  0  0  0  0
   -1.3092   -5.2494    0.0000 C   0  0  0  0  0  0  0  0  0  0  0  0
   -2.6108   -5.9949    0.0000 C   0  0  0  0  0  0  0  0  0  0  0  0
   -3.9072   -5.2404    0.0000 C   0  0  0  0  0  0  0  0  0  0  0  0
   -3.9020   -3.7404    0.0000 N   0  0  0  0  0  0  0  0  0  0  0  0
   -2.6004   -2.9949    0.0000 C   0  0  0  0  0  0  0  0  0  0  0  0
  1  2  1  0  0  0  0
  2  3  2  0  0  0  0
  3  4  1  0  0  0  0
  4  5  1  0  0  0  0
  4  6  2  0  0  0  0
  6  7  1  0  0  0  0
  7  8  2  0  0  0  0
  8  2  1  0  0  0  0
  8  9  1  0  0  0  0
  9 10  1  0  0  0  0
 10 11  1  0  0  0  0
 11 12  1  0  0  0  0
 12 13  1  0  0  0  0
 13 14  1  0  0  0  0
 14 15  1  0  0  0  0
 15 16  1  0  0  0  0
 14 17  2  0  0  0  0
 13 18  1  0  0  0  0
 18 19  1  0  0  0  0
 19 10  1  0  0  0  0
  9 20  1  0  0  0  0
 20 21  2  0  0  0  0
 21 22  1  0  0  0  0
 22 23  2  0  0  0  0
 23 24  1  0  0  0  0
 24 25  2  0  0  0  0
 25 20  1  0  0  0  0
M  END
>  <Other ID>
HPD30_1

>  <sub series>
piperazines

>  <Source>
Sydney

>  <% growth M.myc at 100 uM>


>  <% growth M.myc at 25 uM>


>  <M. Myc IC50>


>  <M. Myc IC90>


>  <MIC50>


$$$$
Chemistry 52
  StarDrop          2D                              

 27 30  0  0  0  0  0  0  0  0999 V2000
    2.3383   -1.3500    0.0000 F   0  0  0  0  0  0  0  0  0  0  0  0
    1.2990   -0.7500    0.0000 C   0  0  0  0  0  0  0  0  0  0  0  0
    1.2990    0.7500    0.0000 C   0  0  0  0  0  0  0  0  0  0  0  0
    0.0000    1.5000    0.0000 C   0  0  0  0  0  0  0  0  0  0  0  0
    0.0000    2.7000    0.0000 Cl  0  0  0  0  0  0  0  0  0  0  0  0
   -1.2990    0.7500    0.0000 C   0  0  0  0  0  0  0  0  0  0  0  0
   -1.2990   -0.7500    0.0000 C   0  0  0  0  0  0  0  0  0  0  0  0
    0.0000   -1.5000    0.0000 C   0  0  0  0  0  0  0  0  0  0  0  0
   -0.0031   -3.0008    0.0000 C   0  0  0  0  0  0  0  0  0  0  0  0
    1.2953   -3.7535    0.0000 N   0  0  0  0  0  0  0  0  0  0  0  0
    1.2948   -5.2535    0.0000 C   0  0  0  0  0  0  0  0  0  0  0  0
    2.5936   -6.0040    0.0000 C   0  0  0  0  0  0  0  0  0  0  0  0
    3.8929   -5.2545    0.0000 N   0  0  0  0  0  0  0  0  0  0  0  0
    3.8935   -3.7545    0.0000 C   0  0  0  0  0  0  0  0  0  0  0  0
    2.5947   -3.0040    0.0000 C   0  0  0  0  0  0  0  0  0  0  0  0
    5.1923   -6.0054    0.0000 C   0  0  0  0  0  0  0  0  0  0  0  0
    5.1942   -7.5054    0.0000 C   0  0  0  0  0  0  0  0  0  0  0  0
    6.4942   -8.2539    0.0000 C   0  0  0  0  0  0  0  0  0  0  0  0
    7.7923   -7.5023    0.0000 C   0  0  0  0  0  0  0  0  0  0  0  0
    7.7905   -6.0023    0.0000 C   0  0  0  0  0  0  0  0  0  0  0  0
    6.4906   -5.2539    0.0000 C   0  0  0  0  0  0  0  0  0  0  0  0
   -1.3039   -3.7494    0.0000 C   0  0  0  0  0  0  0  0  0  0  0  0
   -1.3092   -5.2494    0.0000 C   0  0  0  0  0  0  0  0  0  0  0  0
   -2.6108   -5.9949    0.0000 C   0  0  0  0  0  0  0  0  0  0  0  0
   -3.9072   -5.2404    0.0000 C   0  0  0  0  0  0  0  0  0  0  0  0
   -3.9020   -3.7404    0.0000 N   0  0  0  0  0  0  0  0  0  0  0  0
   -2.6004   -2.9949    0.0000 C   0  0  0  0  0  0  0  0  0  0  0  0
  1  2  1  0  0  0  0
  2  3  2  0  0  0  0
  3  4  1  0  0  0  0
  4  5  1  0  0  0  0
  4  6  2  0  0  0  0
  6  7  1  0  0  0  0
  7  8  2  0  0  0  0
  8  2  1  0  0  0  0
  8  9  1  0  0  0  0
  9 10  1  0  0  0  0
 10 11  1  0  0  0  0
 11 12  1  0  0  0  0
 12 13  1  0  0  0  0
 13 14  1  0  0  0  0
 14 15  1  0  0  0  0
 15 10  1  0  0  0  0
 13 16  1  0  0  0  0
 16 17  2  0  0  0  0
 17 18  1  0  0  0  0
 18 19  2  0  0  0  0
 19 20  1  0  0  0  0
 20 21  2  0  0  0  0
 21 16  1  0  0  0  0
  9 22  1  0  0  0  0
 22 23  2  0  0  0  0
 23 24  1  0  0  0  0
 24 25  2  0  0  0  0
 25 26  1  0  0  0  0
 26 27  2  0  0  0  0
 27 22  1  0  0  0  0
M  END
>  <Other ID>
EPL-BS0237

>  <sub series>
piperazines

>  <Source>
Epichem

>  <% growth M.myc at 100 uM>
10.21

>  <% growth M.myc at 25 uM>
9.687

>  <M. Myc IC50>
1

>  <M. Myc IC90>
7

>  <MIC50>


$$$$
Chemistry 53
  StarDrop          2D                              

 26 28  0  0  0  0  0  0  0  0999 V2000
    3.6331   -3.6060    0.0000 C   0  0  0  0  0  0  0  0  0  0  0  0
    2.5951   -3.0039    0.0000 C   0  0  0  0  0  0  0  0  0  0  0  0
    1.5548   -3.6021    0.0000 C   0  0  0  0  0  0  0  0  0  0  0  0
    2.5973   -1.5031    0.0000 C   0  0  0  0  0  0  0  0  0  0  0  0
    3.6375   -0.9049    0.0000 O   0  0  0  0  0  0  0  0  0  0  0  0
    1.2990   -0.7500    0.0000 N   0  0  0  0  0  0  0  0  0  0  0  0
    1.2990    0.7500    0.0000 C   0  0  0  0  0  0  0  0  0  0  0  0
    0.0000    1.5000    0.0000 C   0  0  0  0  0  0  0  0  0  0  0  0
   -1.2990    0.7500    0.0000 N   0  0  0  0  0  0  0  0  0  0  0  0
   -1.2990   -0.7500    0.0000 C   0  0  0  0  0  0  0  0  0  0  0  0
    0.0000   -1.5000    0.0000 C   0  0  0  0  0  0  0  0  0  0  0  0
   -2.5998    1.4986    0.0000 C   0  0  0  0  0  0  0  0  0  0  0  0
   -3.8983    0.7460    0.0000 C   0  0  0  0  0  0  0  0  0  0  0  0
   -3.8989   -0.7540    0.0000 C   0  0  0  0  0  0  0  0  0  0  0  0
   -5.1982   -1.5035    0.0000 C   0  0  0  0  0  0  0  0  0  0  0  0
   -6.4970   -0.7530    0.0000 C   0  0  0  0  0  0  0  0  0  0  0  0
   -6.4964    0.7470    0.0000 N   0  0  0  0  0  0  0  0  0  0  0  0
   -5.1971    1.4965    0.0000 C   0  0  0  0  0  0  0  0  0  0  0  0
   -2.6013    2.9994    0.0000 C   0  0  0  0  0  0  0  0  0  0  0  0
   -3.9027    3.7455    0.0000 C   0  0  0  0  0  0  0  0  0  0  0  0
   -3.9073    5.2455    0.0000 C   0  0  0  0  0  0  0  0  0  0  0  0
   -2.6105    5.9995    0.0000 C   0  0  0  0  0  0  0  0  0  0  0  0
   -2.6142    7.1995    0.0000 Cl  0  0  0  0  0  0  0  0  0  0  0  0
   -1.3092    5.2535    0.0000 C   0  0  0  0  0  0  0  0  0  0  0  0
   -1.3046    3.7535    0.0000 C   0  0  0  0  0  0  0  0  0  0  0  0
   -0.2635    3.1567    0.0000 F   0  0  0  0  0  0  0  0  0  0  0  0
  1  2  1  0  0  0  0
  2  3  1  0  0  0  0
  2  4  1  0  0  0  0
  4  5  2  0  0  0  0
  4  6  1  0  0  0  0
  6  7  1  0  0  0  0
  7  8  1  0  0  0  0
  8  9  1  0  0  0  0
  9 10  1  0  0  0  0
 10 11  1  0  0  0  0
 11  6  1  0  0  0  0
  9 12  1  0  0  0  0
 12 13  1  0  0  0  0
 13 14  2  0  0  0  0
 14 15  1  0  0  0  0
 15 16  2  0  0  0  0
 16 17  1  0  0  0  0
 17 18  2  0  0  0  0
 18 13  1  0  0  0  0
 12 19  1  0  0  0  0
 19 20  2  0  0  0  0
 20 21  1  0  0  0  0
 21 22  2  0  0  0  0
 22 23  1  0  0  0  0
 22 24  1  0  0  0  0
 24 25  2  0  0  0  0
 25 19  1  0  0  0  0
 25 26  1  0  0  0  0
M  END
>  <Other ID>
EPL-BS0248

>  <sub series>
piperazines

>  <Source>
Epichem

>  <% growth M.myc at 100 uM>
10.68

>  <% growth M.myc at 25 uM>
53.43

>  <M. Myc IC50>


>  <M. Myc IC90>


>  <MIC50>


$$$$
Chemistry 54
  StarDrop          2D                              

 29 32  0  0  0  0  0  0  0  0999 V2000
    2.3383   -1.3500    0.0000 F   0  0  0  0  0  0  0  0  0  0  0  0
    1.2990   -0.7500    0.0000 C   0  0  0  0  0  0  0  0  0  0  0  0
    1.2990    0.7500    0.0000 C   0  0  0  0  0  0  0  0  0  0  0  0
    0.0000    1.5000    0.0000 C   0  0  0  0  0  0  0  0  0  0  0  0
    0.0000    2.7000    0.0000 Cl  0  0  0  0  0  0  0  0  0  0  0  0
   -1.2990    0.7500    0.0000 C   0  0  0  0  0  0  0  0  0  0  0  0
   -1.2990   -0.7500    0.0000 C   0  0  0  0  0  0  0  0  0  0  0  0
    0.0000   -1.5000    0.0000 C   0  0  0  0  0  0  0  0  0  0  0  0
   -0.0031   -3.0008    0.0000 C   0  0  0  0  0  0  0  0  0  0  0  0
    1.2953   -3.7535    0.0000 N   0  0  0  0  0  0  0  0  0  0  0  0
    1.2948   -5.2535    0.0000 C   0  0  0  0  0  0  0  0  0  0  0  0
    2.5936   -6.0040    0.0000 C   0  0  0  0  0  0  0  0  0  0  0  0
    3.8929   -5.2545    0.0000 N   0  0  0  0  0  0  0  0  0  0  0  0
    3.8935   -3.7545    0.0000 C   0  0  0  0  0  0  0  0  0  0  0  0
    2.5947   -3.0040    0.0000 C   0  0  0  0  0  0  0  0  0  0  0  0
    5.1939   -6.0027    0.0000 C   0  0  0  0  0  0  0  0  0  0  0  0
    5.1956   -7.2027    0.0000 O   0  0  0  0  0  0  0  0  0  0  0  0
    6.4929   -5.2510    0.0000 C   0  0  0  0  0  0  0  0  0  0  0  0
    7.7943   -5.9969    0.0000 C   0  0  0  0  0  0  0  0  0  0  0  0
    9.0910   -5.2429    0.0000 C   0  0  0  0  0  0  0  0  0  0  0  0
    9.0864   -3.7429    0.0000 C   0  0  0  0  0  0  0  0  0  0  0  0
    7.7851   -2.9969    0.0000 C   0  0  0  0  0  0  0  0  0  0  0  0
    6.4883   -3.7509    0.0000 C   0  0  0  0  0  0  0  0  0  0  0  0
   -1.3039   -3.7494    0.0000 C   0  0  0  0  0  0  0  0  0  0  0  0
   -1.3092   -5.2494    0.0000 C   0  0  0  0  0  0  0  0  0  0  0  0
   -2.6108   -5.9949    0.0000 C   0  0  0  0  0  0  0  0  0  0  0  0
   -3.9072   -5.2404    0.0000 C   0  0  0  0  0  0  0  0  0  0  0  0
   -3.9020   -3.7404    0.0000 N   0  0  0  0  0  0  0  0  0  0  0  0
   -2.6004   -2.9949    0.0000 C   0  0  0  0  0  0  0  0  0  0  0  0
  1  2  1  0  0  0  0
  2  3  2  0  0  0  0
  3  4  1  0  0  0  0
  4  5  1  0  0  0  0
  4  6  2  0  0  0  0
  6  7  1  0  0  0  0
  7  8  2  0  0  0  0
  8  2  1  0  0  0  0
  8  9  1  0  0  0  0
  9 10  1  0  0  0  0
 10 11  1  0  0  0  0
 11 12  1  0  0  0  0
 12 13  1  0  0  0  0
 13 14  1  0  0  0  0
 14 15  1  0  0  0  0
 15 10  1  0  0  0  0
 13 16  1  0  0  0  0
 16 17  2  0  0  0  0
 16 18  1  0  0  0  0
 18 19  2  0  0  0  0
 19 20  1  0  0  0  0
 20 21  2  0  0  0  0
 21 22  1  0  0  0  0
 22 23  2  0  0  0  0
 23 18  1  0  0  0  0
  9 24  1  0  0  0  0
 24 25  2  0  0  0  0
 25 26  1  0  0  0  0
 26 27  2  0  0  0  0
 27 28  1  0  0  0  0
 28 29  2  0  0  0  0
 29 24  1  0  0  0  0
M  END
>  <Other ID>
EPL-BS 250

>  <sub series>
piperazines

>  <Source>
Epichem

>  <% growth M.myc at 100 uM>
2.109

>  <% growth M.myc at 25 uM>
30.8

>  <M. Myc IC50>


>  <M. Myc IC90>


>  <MIC50>


$$$$
Chemistry 55
  StarDrop          2D                              

 30 33  0  0  0  0  0  0  0  0999 V2000
    2.3383   -1.3500    0.0000 F   0  0  0  0  0  0  0  0  0  0  0  0
    1.2990   -0.7500    0.0000 C   0  0  0  0  0  0  0  0  0  0  0  0
    1.2990    0.7500    0.0000 C   0  0  0  0  0  0  0  0  0  0  0  0
    0.0000    1.5000    0.0000 C   0  0  0  0  0  0  0  0  0  0  0  0
    0.0000    2.7000    0.0000 Cl  0  0  0  0  0  0  0  0  0  0  0  0
   -1.2990    0.7500    0.0000 C   0  0  0  0  0  0  0  0  0  0  0  0
   -1.2990   -0.7500    0.0000 C   0  0  0  0  0  0  0  0  0  0  0  0
    0.0000   -1.5000    0.0000 C   0  0  0  0  0  0  0  0  0  0  0  0
   -0.0031   -3.0008    0.0000 C   0  0  0  0  0  0  0  0  0  0  0  0
    1.2953   -3.7535    0.0000 N   0  0  0  0  0  0  0  0  0  0  0  0
    1.2948   -5.2535    0.0000 C   0  0  0  0  0  0  0  0  0  0  0  0
    2.5936   -6.0040    0.0000 C   0  0  0  0  0  0  0  0  0  0  0  0
    3.8929   -5.2545    0.0000 N   0  0  0  0  0  0  0  0  0  0  0  0
    3.8935   -3.7545    0.0000 C   0  0  0  0  0  0  0  0  0  0  0  0
    2.5947   -3.0040    0.0000 C   0  0  0  0  0  0  0  0  0  0  0  0
    5.1924   -6.0054    0.0000 S   0  0  0  0  0  0  0  0  0  0  0  0
    6.2317   -5.4055    0.0000 O   0  0  0  0  0  0  0  0  0  0  0  0
    5.1927   -4.8054    0.0000 O   0  0  0  0  0  0  0  0  0  0  0  0
    5.1928   -7.5062    0.0000 C   0  0  0  0  0  0  0  0  0  0  0  0
    3.8939   -8.2566    0.0000 C   0  0  0  0  0  0  0  0  0  0  0  0
    3.8943   -9.7566    0.0000 C   0  0  0  0  0  0  0  0  0  0  0  0
    5.1936  -10.5062    0.0000 C   0  0  0  0  0  0  0  0  0  0  0  0
    6.4924   -9.7559    0.0000 C   0  0  0  0  0  0  0  0  0  0  0  0
    6.4920   -8.2559    0.0000 C   0  0  0  0  0  0  0  0  0  0  0  0
   -1.3039   -3.7494    0.0000 C   0  0  0  0  0  0  0  0  0  0  0  0
   -1.3092   -5.2494    0.0000 C   0  0  0  0  0  0  0  0  0  0  0  0
   -2.6108   -5.9949    0.0000 C   0  0  0  0  0  0  0  0  0  0  0  0
   -3.9072   -5.2404    0.0000 C   0  0  0  0  0  0  0  0  0  0  0  0
   -3.9020   -3.7404    0.0000 N   0  0  0  0  0  0  0  0  0  0  0  0
   -2.6004   -2.9949    0.0000 C   0  0  0  0  0  0  0  0  0  0  0  0
  1  2  1  0  0  0  0
  2  3  2  0  0  0  0
  3  4  1  0  0  0  0
  4  5  1  0  0  0  0
  4  6  2  0  0  0  0
  6  7  1  0  0  0  0
  7  8  2  0  0  0  0
  8  2  1  0  0  0  0
  8  9  1  0  0  0  0
  9 10  1  0  0  0  0
 10 11  1  0  0  0  0
 11 12  1  0  0  0  0
 12 13  1  0  0  0  0
 13 14  1  0  0  0  0
 14 15  1  0  0  0  0
 15 10  1  0  0  0  0
 13 16  1  0  0  0  0
 16 17  2  0  0  0  0
 16 18  2  0  0  0  0
 16 19  1  0  0  0  0
 19 20  2  0  0  0  0
 20 21  1  0  0  0  0
 21 22  2  0  0  0  0
 22 23  1  0  0  0  0
 23 24  2  0  0  0  0
 24 19  1  0  0  0  0
  9 25  1  0  0  0  0
 25 26  2  0  0  0  0
 26 27  1  0  0  0  0
 27 28  2  0  0  0  0
 28 29  1  0  0  0  0
 29 30  2  0  0  0  0
 30 25  1  0  0  0  0
M  END
>  <Other ID>
EPL-BS 256

>  <sub series>
piperazines

>  <Source>
Epichem

>  <% growth M.myc at 100 uM>
52.46

>  <% growth M.myc at 25 uM>
51.91

>  <M. Myc IC50>


>  <M. Myc IC90>


>  <MIC50>


$$$$
Chemistry 56
  StarDrop          2D                              

 25 27  0  0  0  0  0  0  0  0999 V2000
    2.5984   -2.7004    0.0000 C   0  0  0  0  0  0  0  0  0  0  0  0
    2.5988   -1.5004    0.0000 S   0  0  0  0  0  0  0  0  0  0  0  0
    3.6384   -0.9011    0.0000 O   0  0  0  0  0  0  0  0  0  0  0  0
    3.6377   -2.1009    0.0000 O   0  0  0  0  0  0  0  0  0  0  0  0
    1.2990   -0.7500    0.0000 N   0  0  0  0  0  0  0  0  0  0  0  0
    1.2990    0.7500    0.0000 C   0  0  0  0  0  0  0  0  0  0  0  0
    0.0000    1.5000    0.0000 C   0  0  0  0  0  0  0  0  0  0  0  0
   -1.2990    0.7500    0.0000 N   0  0  0  0  0  0  0  0  0  0  0  0
   -1.2990   -0.7500    0.0000 C   0  0  0  0  0  0  0  0  0  0  0  0
    0.0000   -1.5000    0.0000 C   0  0  0  0  0  0  0  0  0  0  0  0
   -2.5998    1.4986    0.0000 C   0  0  0  0  0  0  0  0  0  0  0  0
   -3.8983    0.7460    0.0000 C   0  0  0  0  0  0  0  0  0  0  0  0
   -3.8989   -0.7540    0.0000 C   0  0  0  0  0  0  0  0  0  0  0  0
   -5.1982   -1.5035    0.0000 C   0  0  0  0  0  0  0  0  0  0  0  0
   -6.4970   -0.7530    0.0000 C   0  0  0  0  0  0  0  0  0  0  0  0
   -6.4964    0.7470    0.0000 N   0  0  0  0  0  0  0  0  0  0  0  0
   -5.1971    1.4965    0.0000 C   0  0  0  0  0  0  0  0  0  0  0  0
   -2.6013    2.9994    0.0000 C   0  0  0  0  0  0  0  0  0  0  0  0
   -3.9027    3.7455    0.0000 C   0  0  0  0  0  0  0  0  0  0  0  0
   -3.9073    5.2455    0.0000 C   0  0  0  0  0  0  0  0  0  0  0  0
   -2.6105    5.9995    0.0000 C   0  0  0  0  0  0  0  0  0  0  0  0
   -2.6142    7.1995    0.0000 Cl  0  0  0  0  0  0  0  0  0  0  0  0
   -1.3092    5.2535    0.0000 C   0  0  0  0  0  0  0  0  0  0  0  0
   -1.3046    3.7535    0.0000 C   0  0  0  0  0  0  0  0  0  0  0  0
   -0.2635    3.1567    0.0000 F   0  0  0  0  0  0  0  0  0  0  0  0
  1  2  1  0  0  0  0
  2  3  2  0  0  0  0
  2  4  2  0  0  0  0
  2  5  1  0  0  0  0
  5  6  1  0  0  0  0
  6  7  1  0  0  0  0
  7  8  1  0  0  0  0
  8  9  1  0  0  0  0
  9 10  1  0  0  0  0
 10  5  1  0  0  0  0
  8 11  1  0  0  0  0
 11 12  1  0  0  0  0
 12 13  2  0  0  0  0
 13 14  1  0  0  0  0
 14 15  2  0  0  0  0
 15 16  1  0  0  0  0
 16 17  2  0  0  0  0
 17 12  1  0  0  0  0
 11 18  1  0  0  0  0
 18 19  2  0  0  0  0
 19 20  1  0  0  0  0
 20 21  2  0  0  0  0
 21 22  1  0  0  0  0
 21 23  1  0  0  0  0
 23 24  2  0  0  0  0
 24 18  1  0  0  0  0
 24 25  1  0  0  0  0
M  END
>  <Other ID>
EPL-BS0322

>  <sub series>
piperazines

>  <Source>
Epichem

>  <% growth M.myc at 100 uM>
83.55

>  <% growth M.myc at 25 uM>
78.01

>  <M. Myc IC50>


>  <M. Myc IC90>


>  <MIC50>


$$$$
Chemistry 57
  StarDrop          2D                              

 30 33  0  0  0  0  0  0  0  0999 V2000
    2.3383   -1.3500    0.0000 F   0  0  0  0  0  0  0  0  0  0  0  0
    1.2990   -0.7500    0.0000 C   0  0  0  0  0  0  0  0  0  0  0  0
    1.2990    0.7500    0.0000 C   0  0  0  0  0  0  0  0  0  0  0  0
    0.0000    1.5000    0.0000 C   0  0  0  0  0  0  0  0  0  0  0  0
    0.0000    2.7000    0.0000 Cl  0  0  0  0  0  0  0  0  0  0  0  0
   -1.2990    0.7500    0.0000 C   0  0  0  0  0  0  0  0  0  0  0  0
   -1.2990   -0.7500    0.0000 C   0  0  0  0  0  0  0  0  0  0  0  0
    0.0000   -1.5000    0.0000 C   0  0  0  0  0  0  0  0  0  0  0  0
   -0.0031   -3.0008    0.0000 C   0  0  0  0  0  0  0  0  0  0  0  0
    1.2953   -3.7535    0.0000 N   0  0  0  0  0  0  0  0  0  0  0  0
    1.2948   -5.2535    0.0000 C   0  0  0  0  0  0  0  0  0  0  0  0
    2.5936   -6.0040    0.0000 C   0  0  0  0  0  0  0  0  0  0  0  0
    3.8929   -5.2545    0.0000 N   0  0  0  0  0  0  0  0  0  0  0  0
    3.8935   -3.7545    0.0000 C   0  0  0  0  0  0  0  0  0  0  0  0
    2.5947   -3.0040    0.0000 C   0  0  0  0  0  0  0  0  0  0  0  0
    5.1939   -6.0027    0.0000 C   0  0  0  0  0  0  0  0  0  0  0  0
    5.1956   -7.2027    0.0000 O   0  0  0  0  0  0  0  0  0  0  0  0
    6.4929   -5.2510    0.0000 N   0  0  0  0  0  0  0  0  0  0  0  0
    7.7939   -5.9992    0.0000 C   0  0  0  0  0  0  0  0  0  0  0  0
    9.0933   -5.2497    0.0000 C   0  0  0  0  0  0  0  0  0  0  0  0
   10.3921   -6.0002    0.0000 C   0  0  0  0  0  0  0  0  0  0  0  0
   10.3915   -7.5002    0.0000 C   0  0  0  0  0  0  0  0  0  0  0  0
    9.0922   -8.2497    0.0000 C   0  0  0  0  0  0  0  0  0  0  0  0
    7.7935   -7.4993    0.0000 C   0  0  0  0  0  0  0  0  0  0  0  0
   -1.3039   -3.7494    0.0000 C   0  0  0  0  0  0  0  0  0  0  0  0
   -1.3092   -5.2494    0.0000 C   0  0  0  0  0  0  0  0  0  0  0  0
   -2.6108   -5.9949    0.0000 C   0  0  0  0  0  0  0  0  0  0  0  0
   -3.9072   -5.2404    0.0000 C   0  0  0  0  0  0  0  0  0  0  0  0
   -3.9020   -3.7404    0.0000 N   0  0  0  0  0  0  0  0  0  0  0  0
   -2.6004   -2.9949    0.0000 C   0  0  0  0  0  0  0  0  0  0  0  0
  1  2  1  0  0  0  0
  2  3  2  0  0  0  0
  3  4  1  0  0  0  0
  4  5  1  0  0  0  0
  4  6  2  0  0  0  0
  6  7  1  0  0  0  0
  7  8  2  0  0  0  0
  8  2  1  0  0  0  0
  8  9  1  0  0  0  0
  9 10  1  0  0  0  0
 10 11  1  0  0  0  0
 11 12  1  0  0  0  0
 12 13  1  0  0  0  0
 13 14  1  0  0  0  0
 14 15  1  0  0  0  0
 15 10  1  0  0  0  0
 13 16  1  0  0  0  0
 16 17  2  0  0  0  0
 16 18  1  0  0  0  0
 18 19  1  0  0  0  0
 19 20  2  0  0  0  0
 20 21  1  0  0  0  0
 21 22  2  0  0  0  0
 22 23  1  0  0  0  0
 23 24  2  0  0  0  0
 24 19  1  0  0  0  0
  9 25  1  0  0  0  0
 25 26  2  0  0  0  0
 26 27  1  0  0  0  0
 27 28  2  0  0  0  0
 28 29  1  0  0  0  0
 29 30  2  0  0  0  0
 30 25  1  0  0  0  0
M  END
>  <Other ID>
EPL-BS0447

>  <sub series>
piperazines

>  <Source>
Epichem

>  <% growth M.myc at 100 uM>
5.515

>  <% growth M.myc at 25 uM>
22.23

>  <M. Myc IC50>
10.8

>  <M. Myc IC90>
15.8

>  <MIC50>


$$$$
Chemistry 58
  StarDrop          2D                              

 30 33  0  0  0  0  0  0  0  0999 V2000
    2.3383   -1.3500    0.0000 F   0  0  0  0  0  0  0  0  0  0  0  0
    1.2990   -0.7500    0.0000 C   0  0  0  0  0  0  0  0  0  0  0  0
    1.2990    0.7500    0.0000 C   0  0  0  0  0  0  0  0  0  0  0  0
    0.0000    1.5000    0.0000 C   0  0  0  0  0  0  0  0  0  0  0  0
    0.0000    2.7000    0.0000 Cl  0  0  0  0  0  0  0  0  0  0  0  0
   -1.2990    0.7500    0.0000 C   0  0  0  0  0  0  0  0  0  0  0  0
   -1.2990   -0.7500    0.0000 C   0  0  0  0  0  0  0  0  0  0  0  0
    0.0000   -1.5000    0.0000 C   0  0  0  0  0  0  0  0  0  0  0  0
   -0.0031   -3.0008    0.0000 C   0  0  0  0  0  0  0  0  0  0  0  0
    1.2953   -3.7535    0.0000 N   0  0  0  0  0  0  0  0  0  0  0  0
    1.2948   -5.2535    0.0000 C   0  0  0  0  0  0  0  0  0  0  0  0
    2.5936   -6.0040    0.0000 C   0  0  0  0  0  0  0  0  0  0  0  0
    3.8929   -5.2545    0.0000 N   0  0  0  0  0  0  0  0  0  0  0  0
    3.8935   -3.7545    0.0000 C   0  0  0  0  0  0  0  0  0  0  0  0
    2.5947   -3.0040    0.0000 C   0  0  0  0  0  0  0  0  0  0  0  0
    5.1939   -6.0027    0.0000 C   0  0  0  0  0  0  0  0  0  0  0  0
    5.1956   -7.2027    0.0000 O   0  0  0  0  0  0  0  0  0  0  0  0
    6.4929   -5.2510    0.0000 O   0  0  0  0  0  0  0  0  0  0  0  0
    7.7939   -5.9992    0.0000 C   0  0  0  0  0  0  0  0  0  0  0  0
    9.0933   -5.2497    0.0000 C   0  0  0  0  0  0  0  0  0  0  0  0
   10.3921   -6.0002    0.0000 C   0  0  0  0  0  0  0  0  0  0  0  0
   10.3915   -7.5002    0.0000 C   0  0  0  0  0  0  0  0  0  0  0  0
    9.0922   -8.2497    0.0000 C   0  0  0  0  0  0  0  0  0  0  0  0
    7.7935   -7.4993    0.0000 C   0  0  0  0  0  0  0  0  0  0  0  0
   -1.3039   -3.7494    0.0000 C   0  0  0  0  0  0  0  0  0  0  0  0
   -1.3092   -5.2494    0.0000 C   0  0  0  0  0  0  0  0  0  0  0  0
   -2.6108   -5.9949    0.0000 C   0  0  0  0  0  0  0  0  0  0  0  0
   -3.9072   -5.2404    0.0000 C   0  0  0  0  0  0  0  0  0  0  0  0
   -3.9020   -3.7404    0.0000 N   0  0  0  0  0  0  0  0  0  0  0  0
   -2.6004   -2.9949    0.0000 C   0  0  0  0  0  0  0  0  0  0  0  0
  1  2  1  0  0  0  0
  2  3  2  0  0  0  0
  3  4  1  0  0  0  0
  4  5  1  0  0  0  0
  4  6  2  0  0  0  0
  6  7  1  0  0  0  0
  7  8  2  0  0  0  0
  8  2  1  0  0  0  0
  8  9  1  0  0  0  0
  9 10  1  0  0  0  0
 10 11  1  0  0  0  0
 11 12  1  0  0  0  0
 12 13  1  0  0  0  0
 13 14  1  0  0  0  0
 14 15  1  0  0  0  0
 15 10  1  0  0  0  0
 13 16  1  0  0  0  0
 16 17  2  0  0  0  0
 16 18  1  0  0  0  0
 18 19  1  0  0  0  0
 19 20  2  0  0  0  0
 20 21  1  0  0  0  0
 21 22  2  0  0  0  0
 22 23  1  0  0  0  0
 23 24  2  0  0  0  0
 24 19  1  0  0  0  0
  9 25  1  0  0  0  0
 25 26  2  0  0  0  0
 26 27  1  0  0  0  0
 27 28  2  0  0  0  0
 28 29  1  0  0  0  0
 29 30  2  0  0  0  0
 30 25  1  0  0  0  0
M  END
>  <Other ID>
EPL-BS0494

>  <sub series>
piperazines

>  <Source>
Epichem

>  <% growth M.myc at 100 uM>
11.48

>  <% growth M.myc at 25 uM>
29.95

>  <M. Myc IC50>


>  <M. Myc IC90>


>  <MIC50>


$$$$
Chemistry 59
  StarDrop          2D                              

 26 29  0  0  0  0  0  0  0  0999 V2000
    2.3383   -1.3500    0.0000 F   0  0  0  0  0  0  0  0  0  0  0  0
    1.2990   -0.7500    0.0000 C   0  0  0  0  0  0  0  0  0  0  0  0
    1.2990    0.7500    0.0000 C   0  0  0  0  0  0  0  0  0  0  0  0
    0.0000    1.5000    0.0000 C   0  0  0  0  0  0  0  0  0  0  0  0
    0.0000    2.7000    0.0000 Cl  0  0  0  0  0  0  0  0  0  0  0  0
   -1.2990    0.7500    0.0000 C   0  0  0  0  0  0  0  0  0  0  0  0
   -1.2990   -0.7500    0.0000 C   0  0  0  0  0  0  0  0  0  0  0  0
    0.0000   -1.5000    0.0000 C   0  0  0  0  0  0  0  0  0  0  0  0
   -0.0031   -3.0008    0.0000 C   0  0  0  0  0  0  0  0  0  0  0  0
    1.2953   -3.7535    0.0000 N   0  0  0  0  0  0  0  0  0  0  0  0
    1.2948   -5.2535    0.0000 C   0  0  0  0  0  0  0  0  0  0  0  0
    2.5936   -6.0040    0.0000 C   0  0  0  0  0  0  0  0  0  0  0  0
    3.8929   -5.2545    0.0000 N   0  0  0  0  0  0  0  0  0  0  0  0
    3.8935   -3.7545    0.0000 C   0  0  0  0  0  0  0  0  0  0  0  0
    2.5947   -3.0040    0.0000 C   0  0  0  0  0  0  0  0  0  0  0  0
    5.1939   -6.0027    0.0000 C   0  0  0  0  0  0  0  0  0  0  0  0
    5.1956   -7.2027    0.0000 O   0  0  0  0  0  0  0  0  0  0  0  0
    6.4929   -5.2510    0.0000 C   0  0  0  0  0  0  0  0  0  0  0  0
    7.9139   -5.2922    0.0000 C   0  0  0  0  0  0  0  0  0  0  0  0
    7.1598   -3.9955    0.0000 C   0  0  0  0  0  0  0  0  0  0  0  0
   -1.3039   -3.7494    0.0000 C   0  0  0  0  0  0  0  0  0  0  0  0
   -1.3092   -5.2494    0.0000 C   0  0  0  0  0  0  0  0  0  0  0  0
   -2.6108   -5.9949    0.0000 C   0  0  0  0  0  0  0  0  0  0  0  0
   -3.9072   -5.2404    0.0000 C   0  0  0  0  0  0  0  0  0  0  0  0
   -3.9020   -3.7404    0.0000 N   0  0  0  0  0  0  0  0  0  0  0  0
   -2.6004   -2.9949    0.0000 C   0  0  0  0  0  0  0  0  0  0  0  0
  1  2  1  0  0  0  0
  2  3  2  0  0  0  0
  3  4  1  0  0  0  0
  4  5  1  0  0  0  0
  4  6  2  0  0  0  0
  6  7  1  0  0  0  0
  7  8  2  0  0  0  0
  8  2  1  0  0  0  0
  8  9  1  0  0  0  0
  9 10  1  0  0  0  0
 10 11  1  0  0  0  0
 11 12  1  0  0  0  0
 12 13  1  0  0  0  0
 13 14  1  0  0  0  0
 14 15  1  0  0  0  0
 15 10  1  0  0  0  0
 13 16  1  0  0  0  0
 16 17  2  0  0  0  0
 16 18  1  0  0  0  0
 18 19  1  0  0  0  0
 19 20  1  0  0  0  0
 20 18  1  0  0  0  0
  9 21  1  0  0  0  0
 21 22  2  0  0  0  0
 22 23  1  0  0  0  0
 23 24  2  0  0  0  0
 24 25  1  0  0  0  0
 25 26  2  0  0  0  0
 26 21  1  0  0  0  0
M  END
>  <Other ID>
EPL-BS0549

>  <sub series>
piperazines

>  <Source>
Epichem

>  <% growth M.myc at 100 uM>
4.842

>  <% growth M.myc at 25 uM>
16.88

>  <M. Myc IC50>
4

>  <M. Myc IC90>
7.8

>  <MIC50>


$$$$
Chemistry 60
  StarDrop          2D                              

 27 29  0  0  0  0  0  0  0  0999 V2000
    2.3383   -1.3500    0.0000 F   0  0  0  0  0  0  0  0  0  0  0  0
    1.2990   -0.7500    0.0000 C   0  0  0  0  0  0  0  0  0  0  0  0
    1.2990    0.7500    0.0000 C   0  0  0  0  0  0  0  0  0  0  0  0
    0.0000    1.5000    0.0000 C   0  0  0  0  0  0  0  0  0  0  0  0
    0.0000    2.7000    0.0000 Cl  0  0  0  0  0  0  0  0  0  0  0  0
   -1.2990    0.7500    0.0000 C   0  0  0  0  0  0  0  0  0  0  0  0
   -1.2990   -0.7500    0.0000 C   0  0  0  0  0  0  0  0  0  0  0  0
    0.0000   -1.5000    0.0000 C   0  0  0  0  0  0  0  0  0  0  0  0
   -0.0031   -3.0008    0.0000 C   0  0  0  0  0  0  0  0  0  0  0  0
    1.2953   -3.7535    0.0000 N   0  0  0  0  0  0  0  0  0  0  0  0
    1.2948   -5.2535    0.0000 C   0  0  0  0  0  0  0  0  0  0  0  0
    2.5936   -6.0040    0.0000 C   0  0  0  0  0  0  0  0  0  0  0  0
    3.8929   -5.2545    0.0000 N   0  0  0  0  0  0  0  0  0  0  0  0
    3.8935   -3.7545    0.0000 C   0  0  0  0  0  0  0  0  0  0  0  0
    2.5947   -3.0040    0.0000 C   0  0  0  0  0  0  0  0  0  0  0  0
    5.1939   -6.0027    0.0000 C   0  0  0  0  0  0  0  0  0  0  0  0
    5.1956   -7.2027    0.0000 O   0  0  0  0  0  0  0  0  0  0  0  0
    6.4929   -5.2510    0.0000 C   0  0  0  0  0  0  0  0  0  0  0  0
    7.5331   -5.8492    0.0000 F   0  0  0  0  0  0  0  0  0  0  0  0
    7.5312   -4.6494    0.0000 F   0  0  0  0  0  0  0  0  0  0  0  0
    6.4913   -4.0510    0.0000 F   0  0  0  0  0  0  0  0  0  0  0  0
   -1.3039   -3.7494    0.0000 C   0  0  0  0  0  0  0  0  0  0  0  0
   -1.3092   -5.2494    0.0000 C   0  0  0  0  0  0  0  0  0  0  0  0
   -2.6108   -5.9949    0.0000 C   0  0  0  0  0  0  0  0  0  0  0  0
   -3.9072   -5.2404    0.0000 C   0  0  0  0  0  0  0  0  0  0  0  0
   -3.9020   -3.7404    0.0000 N   0  0  0  0  0  0  0  0  0  0  0  0
   -2.6004   -2.9949    0.0000 C   0  0  0  0  0  0  0  0  0  0  0  0
  1  2  1  0  0  0  0
  2  3  2  0  0  0  0
  3  4  1  0  0  0  0
  4  5  1  0  0  0  0
  4  6  2  0  0  0  0
  6  7  1  0  0  0  0
  7  8  2  0  0  0  0
  8  2  1  0  0  0  0
  8  9  1  0  0  0  0
  9 10  1  0  0  0  0
 10 11  1  0  0  0  0
 11 12  1  0  0  0  0
 12 13  1  0  0  0  0
 13 14  1  0  0  0  0
 14 15  1  0  0  0  0
 15 10  1  0  0  0  0
 13 16  1  0  0  0  0
 16 17  2  0  0  0  0
 16 18  1  0  0  0  0
 18 19  1  0  0  0  0
 18 20  1  0  0  0  0
 18 21  1  0  0  0  0
  9 22  1  0  0  0  0
 22 23  2  0  0  0  0
 23 24  1  0  0  0  0
 24 25  2  0  0  0  0
 25 26  1  0  0  0  0
 26 27  2  0  0  0  0
 27 22  1  0  0  0  0
M  END
>  <Other ID>
EPL-BS0572

>  <sub series>
piperazines

>  <Source>
Epichem

>  <% growth M.myc at 100 uM>
-1.332

>  <% growth M.myc at 25 uM>
86.55

>  <M. Myc IC50>


>  <M. Myc IC90>


>  <MIC50>


$$$$
Chemistry 61
  StarDrop          2D                              

 29 32  0  0  0  0  0  0  0  0999 V2000
    4.9460   -3.4943    0.0000 C   0  0  0  0  0  0  0  0  0  0  0  0
    3.8056   -3.8679    0.0000 C   0  0  0  0  0  0  0  0  0  0  0  0
    3.3372   -5.2929    0.0000 N   0  0  0  0  0  0  0  0  0  0  0  0
    1.8372   -5.2877    0.0000 C   0  0  0  0  0  0  0  0  0  0  0  0
    1.3786   -3.8595    0.0000 S   0  0  0  0  0  0  0  0  0  0  0  0
    2.5951   -3.0039    0.0000 C   0  0  0  0  0  0  0  0  0  0  0  0
    2.5973   -1.5031    0.0000 C   0  0  0  0  0  0  0  0  0  0  0  0
    3.6375   -0.9049    0.0000 O   0  0  0  0  0  0  0  0  0  0  0  0
    1.2990   -0.7500    0.0000 N   0  0  0  0  0  0  0  0  0  0  0  0
    1.2990    0.7500    0.0000 C   0  0  0  0  0  0  0  0  0  0  0  0
    0.0000    1.5000    0.0000 C   0  0  0  0  0  0  0  0  0  0  0  0
   -1.2990    0.7500    0.0000 N   0  0  0  0  0  0  0  0  0  0  0  0
   -1.2990   -0.7500    0.0000 C   0  0  0  0  0  0  0  0  0  0  0  0
    0.0000   -1.5000    0.0000 C   0  0  0  0  0  0  0  0  0  0  0  0
   -2.5998    1.4986    0.0000 C   0  0  0  0  0  0  0  0  0  0  0  0
   -3.8983    0.7460    0.0000 C   0  0  0  0  0  0  0  0  0  0  0  0
   -3.8989   -0.7540    0.0000 C   0  0  0  0  0  0  0  0  0  0  0  0
   -5.1982   -1.5035    0.0000 C   0  0  0  0  0  0  0  0  0  0  0  0
   -6.4970   -0.7530    0.0000 C   0  0  0  0  0  0  0  0  0  0  0  0
   -6.4964    0.7470    0.0000 N   0  0  0  0  0  0  0  0  0  0  0  0
   -5.1971    1.4965    0.0000 C   0  0  0  0  0  0  0  0  0  0  0  0
   -2.6013    2.9994    0.0000 C   0  0  0  0  0  0  0  0  0  0  0  0
   -3.9027    3.7455    0.0000 C   0  0  0  0  0  0  0  0  0  0  0  0
   -3.9073    5.2455    0.0000 C   0  0  0  0  0  0  0  0  0  0  0  0
   -2.6105    5.9995    0.0000 C   0  0  0  0  0  0  0  0  0  0  0  0
   -2.6142    7.1995    0.0000 Cl  0  0  0  0  0  0  0  0  0  0  0  0
   -1.3092    5.2535    0.0000 C   0  0  0  0  0  0  0  0  0  0  0  0
   -1.3046    3.7535    0.0000 C   0  0  0  0  0  0  0  0  0  0  0  0
   -0.2635    3.1567    0.0000 F   0  0  0  0  0  0  0  0  0  0  0  0
  1  2  1  0  0  0  0
  2  3  1  0  0  0  0
  3  4  2  0  0  0  0
  4  5  1  0  0  0  0
  5  6  1  0  0  0  0
  6  2  2  0  0  0  0
  6  7  1  0  0  0  0
  7  8  2  0  0  0  0
  7  9  1  0  0  0  0
  9 10  1  0  0  0  0
 10 11  1  0  0  0  0
 11 12  1  0  0  0  0
 12 13  1  0  0  0  0
 13 14  1  0  0  0  0
 14  9  1  0  0  0  0
 12 15  1  0  0  0  0
 15 16  1  0  0  0  0
 16 17  2  0  0  0  0
 17 18  1  0  0  0  0
 18 19  2  0  0  0  0
 19 20  1  0  0  0  0
 20 21  2  0  0  0  0
 21 16  1  0  0  0  0
 15 22  1  0  0  0  0
 22 23  2  0  0  0  0
 23 24  1  0  0  0  0
 24 25  2  0  0  0  0
 25 26  1  0  0  0  0
 25 27  1  0  0  0  0
 27 28  2  0  0  0  0
 28 22  1  0  0  0  0
 28 29  1  0  0  0  0
M  END
>  <Other ID>
EPL-BS0595

>  <sub series>
piperazines

>  <Source>
Epichem

>  <% growth M.myc at 100 uM>
13.63

>  <% growth M.myc at 25 uM>
53.49

>  <M. Myc IC50>


>  <M. Myc IC90>


>  <MIC50>


$$$$
Chemistry 62
  StarDrop          2D                              

 29 32  0  0  0  0  0  0  0  0999 V2000
    1.1285   -6.2561    0.0000 C   0  0  0  0  0  0  0  0  0  0  0  0
    1.8372   -5.2877    0.0000 C   0  0  0  0  0  0  0  0  0  0  0  0
    3.3372   -5.2929    0.0000 O   0  0  0  0  0  0  0  0  0  0  0  0
    3.8056   -3.8679    0.0000 N   0  0  0  0  0  0  0  0  0  0  0  0
    2.5951   -3.0039    0.0000 C   0  0  0  0  0  0  0  0  0  0  0  0
    1.3786   -3.8595    0.0000 C   0  0  0  0  0  0  0  0  0  0  0  0
    2.5973   -1.5031    0.0000 C   0  0  0  0  0  0  0  0  0  0  0  0
    3.6375   -0.9049    0.0000 O   0  0  0  0  0  0  0  0  0  0  0  0
    1.2990   -0.7500    0.0000 N   0  0  0  0  0  0  0  0  0  0  0  0
    1.2990    0.7500    0.0000 C   0  0  0  0  0  0  0  0  0  0  0  0
    0.0000    1.5000    0.0000 C   0  0  0  0  0  0  0  0  0  0  0  0
   -1.2990    0.7500    0.0000 N   0  0  0  0  0  0  0  0  0  0  0  0
   -1.2990   -0.7500    0.0000 C   0  0  0  0  0  0  0  0  0  0  0  0
    0.0000   -1.5000    0.0000 C   0  0  0  0  0  0  0  0  0  0  0  0
   -2.5998    1.4986    0.0000 C   0  0  0  0  0  0  0  0  0  0  0  0
   -3.8983    0.7460    0.0000 C   0  0  0  0  0  0  0  0  0  0  0  0
   -3.8989   -0.7540    0.0000 C   0  0  0  0  0  0  0  0  0  0  0  0
   -5.1982   -1.5035    0.0000 C   0  0  0  0  0  0  0  0  0  0  0  0
   -6.4970   -0.7530    0.0000 C   0  0  0  0  0  0  0  0  0  0  0  0
   -6.4964    0.7470    0.0000 N   0  0  0  0  0  0  0  0  0  0  0  0
   -5.1971    1.4965    0.0000 C   0  0  0  0  0  0  0  0  0  0  0  0
   -2.6013    2.9994    0.0000 C   0  0  0  0  0  0  0  0  0  0  0  0
   -3.9027    3.7455    0.0000 C   0  0  0  0  0  0  0  0  0  0  0  0
   -3.9073    5.2455    0.0000 C   0  0  0  0  0  0  0  0  0  0  0  0
   -2.6105    5.9995    0.0000 C   0  0  0  0  0  0  0  0  0  0  0  0
   -2.6142    7.1995    0.0000 Cl  0  0  0  0  0  0  0  0  0  0  0  0
   -1.3092    5.2535    0.0000 C   0  0  0  0  0  0  0  0  0  0  0  0
   -1.3046    3.7535    0.0000 C   0  0  0  0  0  0  0  0  0  0  0  0
   -0.2635    3.1567    0.0000 F   0  0  0  0  0  0  0  0  0  0  0  0
  1  2  1  0  0  0  0
  2  3  1  0  0  0  0
  3  4  1  0  0  0  0
  4  5  2  0  0  0  0
  5  6  1  0  0  0  0
  6  2  2  0  0  0  0
  5  7  1  0  0  0  0
  7  8  2  0  0  0  0
  7  9  1  0  0  0  0
  9 10  1  0  0  0  0
 10 11  1  0  0  0  0
 11 12  1  0  0  0  0
 12 13  1  0  0  0  0
 13 14  1  0  0  0  0
 14  9  1  0  0  0  0
 12 15  1  0  0  0  0
 15 16  1  0  0  0  0
 16 17  2  0  0  0  0
 17 18  1  0  0  0  0
 18 19  2  0  0  0  0
 19 20  1  0  0  0  0
 20 21  2  0  0  0  0
 21 16  1  0  0  0  0
 15 22  1  0  0  0  0
 22 23  2  0  0  0  0
 23 24  1  0  0  0  0
 24 25  2  0  0  0  0
 25 26  1  0  0  0  0
 25 27  1  0  0  0  0
 27 28  2  0  0  0  0
 28 22  1  0  0  0  0
 28 29  1  0  0  0  0
M  END
>  <Other ID>
EPL-BS0609

>  <sub series>
piperazines

>  <Source>
Epichem

>  <% growth M.myc at 100 uM>
2.412

>  <% growth M.myc at 25 uM>
26.96

>  <M. Myc IC50>


>  <M. Myc IC90>


>  <MIC50>


$$$$
Chemistry 70
  StarDrop          2D                              

 23 25  0  0  0  0  0  0  0  0999 V2000
    3.6375   -0.9049    0.0000 C   0  0  0  0  0  0  0  0  0  0  0  0
    2.5973   -1.5031    0.0000 C   0  0  0  0  0  0  0  0  0  0  0  0
    2.5956   -2.7031    0.0000 O   0  0  0  0  0  0  0  0  0  0  0  0
    1.2990   -0.7500    0.0000 N   0  0  0  0  0  0  0  0  0  0  0  0
    1.2990    0.7500    0.0000 C   0  0  0  0  0  0  0  0  0  0  0  0
    0.0000    1.5000    0.0000 C   0  0  0  0  0  0  0  0  0  0  0  0
   -1.2990    0.7500    0.0000 N   0  0  0  0  0  0  0  0  0  0  0  0
   -1.2990   -0.7500    0.0000 C   0  0  0  0  0  0  0  0  0  0  0  0
    0.0000   -1.5000    0.0000 C   0  0  0  0  0  0  0  0  0  0  0  0
   -2.5998    1.4986    0.0000 C   0  0  0  0  0  0  0  0  0  0  0  0
   -3.8983    0.7460    0.0000 C   0  0  0  0  0  0  0  0  0  0  0  0
   -3.8989   -0.7540    0.0000 C   0  0  0  0  0  0  0  0  0  0  0  0
   -5.1982   -1.5035    0.0000 C   0  0  0  0  0  0  0  0  0  0  0  0
   -6.4970   -0.7530    0.0000 C   0  0  0  0  0  0  0  0  0  0  0  0
   -7.5364   -1.3527    0.0000 Cl  0  0  0  0  0  0  0  0  0  0  0  0
   -6.4964    0.7470    0.0000 C   0  0  0  0  0  0  0  0  0  0  0  0
   -5.1971    1.4965    0.0000 C   0  0  0  0  0  0  0  0  0  0  0  0
   -2.6013    2.9994    0.0000 C   0  0  0  0  0  0  0  0  0  0  0  0
   -1.3046    3.7535    0.0000 C   0  0  0  0  0  0  0  0  0  0  0  0
   -1.3092    5.2535    0.0000 C   0  0  0  0  0  0  0  0  0  0  0  0
   -2.6105    5.9995    0.0000 C   0  0  0  0  0  0  0  0  0  0  0  0
   -3.9073    5.2455    0.0000 N   0  0  0  0  0  0  0  0  0  0  0  0
   -3.9027    3.7455    0.0000 C   0  0  0  0  0  0  0  0  0  0  0  0
  1  2  1  0  0  0  0
  2  3  2  0  0  0  0
  2  4  1  0  0  0  0
  4  5  1  0  0  0  0
  5  6  1  0  0  0  0
  6  7  1  0  0  0  0
  7  8  1  0  0  0  0
  8  9  1  0  0  0  0
  9  4  1  0  0  0  0
  7 10  1  0  0  0  0
 10 11  1  0  0  0  0
 11 12  2  0  0  0  0
 12 13  1  0  0  0  0
 13 14  2  0  0  0  0
 14 15  1  0  0  0  0
 14 16  1  0  0  0  0
 16 17  2  0  0  0  0
 17 11  1  0  0  0  0
 10 18  1  0  0  0  0
 18 19  2  0  0  0  0
 19 20  1  0  0  0  0
 20 21  2  0  0  0  0
 21 22  1  0  0  0  0
 22 23  2  0  0  0  0
 23 18  1  0  0  0  0
M  END
>  <Other ID>
EPL-BS0193

>  <sub series>
piperazines

>  <Source>
Epichem

>  <% growth M.myc at 100 uM>
85.37

>  <% growth M.myc at 25 uM>
98.75

>  <M. Myc IC50>


>  <M. Myc IC90>


>  <MIC50>


$$$$
Chemistry 89
  StarDrop          2D                              

 31 34  0  0  0  0  0  0  0  0999 V2000
    2.3383   -1.3500    0.0000 F   0  0  0  0  0  0  0  0  0  0  0  0
    1.2990   -0.7500    0.0000 C   0  0  0  0  0  0  0  0  0  0  0  0
    1.2990    0.7500    0.0000 C   0  0  0  0  0  0  0  0  0  0  0  0
    0.0000    1.5000    0.0000 C   0  0  0  0  0  0  0  0  0  0  0  0
    0.0000    2.7000    0.0000 Cl  0  0  0  0  0  0  0  0  0  0  0  0
   -1.2990    0.7500    0.0000 C   0  0  0  0  0  0  0  0  0  0  0  0
   -1.2990   -0.7500    0.0000 C   0  0  0  0  0  0  0  0  0  0  0  0
    0.0000   -1.5000    0.0000 C   0  0  0  0  0  0  0  0  0  0  0  0
   -0.0031   -3.0008    0.0000 C   0  0  0  0  0  0  0  0  0  0  0  0
    1.2953   -3.7535    0.0000 N   0  0  0  0  0  0  0  0  0  0  0  0
    1.2948   -5.2535    0.0000 C   0  0  0  0  0  0  0  0  0  0  0  0
    2.5936   -6.0040    0.0000 C   0  0  0  0  0  0  0  0  0  0  0  0
    3.8929   -5.2545    0.0000 N   0  0  0  0  0  0  0  0  0  0  0  0
    3.8935   -3.7545    0.0000 C   0  0  0  0  0  0  0  0  0  0  0  0
    2.5947   -3.0040    0.0000 C   0  0  0  0  0  0  0  0  0  0  0  0
    5.1939   -6.0027    0.0000 C   0  0  0  0  0  0  0  0  0  0  0  0
    5.1956   -7.2027    0.0000 O   0  0  0  0  0  0  0  0  0  0  0  0
    6.4929   -5.2510    0.0000 O   0  0  0  0  0  0  0  0  0  0  0  0
    7.7939   -5.9992    0.0000 C   0  0  0  0  0  0  0  0  0  0  0  0
    9.0929   -5.2474    0.0000 C   0  0  0  0  0  0  0  0  0  0  0  0
   10.3943   -5.9933    0.0000 C   0  0  0  0  0  0  0  0  0  0  0  0
   11.6910   -5.2393    0.0000 C   0  0  0  0  0  0  0  0  0  0  0  0
   11.6864   -3.7393    0.0000 C   0  0  0  0  0  0  0  0  0  0  0  0
   10.3850   -2.9933    0.0000 C   0  0  0  0  0  0  0  0  0  0  0  0
    9.0883   -3.7473    0.0000 C   0  0  0  0  0  0  0  0  0  0  0  0
   -1.3039   -3.7494    0.0000 C   0  0  0  0  0  0  0  0  0  0  0  0
   -1.3092   -5.2494    0.0000 C   0  0  0  0  0  0  0  0  0  0  0  0
   -2.6108   -5.9949    0.0000 C   0  0  0  0  0  0  0  0  0  0  0  0
   -3.9072   -5.2404    0.0000 C   0  0  0  0  0  0  0  0  0  0  0  0
   -3.9020   -3.7404    0.0000 N   0  0  0  0  0  0  0  0  0  0  0  0
   -2.6004   -2.9949    0.0000 C   0  0  0  0  0  0  0  0  0  0  0  0
  1  2  1  0  0  0  0
  2  3  2  0  0  0  0
  3  4  1  0  0  0  0
  4  5  1  0  0  0  0
  4  6  2  0  0  0  0
  6  7  1  0  0  0  0
  7  8  2  0  0  0  0
  8  2  1  0  0  0  0
  8  9  1  0  0  0  0
  9 10  1  0  0  0  0
 10 11  1  0  0  0  0
 11 12  1  0  0  0  0
 12 13  1  0  0  0  0
 13 14  1  0  0  0  0
 14 15  1  0  0  0  0
 15 10  1  0  0  0  0
 13 16  1  0  0  0  0
 16 17  2  0  0  0  0
 16 18  1  0  0  0  0
 18 19  1  0  0  0  0
 19 20  1  0  0  0  0
 20 21  2  0  0  0  0
 21 22  1  0  0  0  0
 22 23  2  0  0  0  0
 23 24  1  0  0  0  0
 24 25  2  0  0  0  0
 25 20  1  0  0  0  0
  9 26  1  0  0  0  0
 26 27  2  0  0  0  0
 27 28  1  0  0  0  0
 28 29  2  0  0  0  0
 29 30  1  0  0  0  0
 30 31  2  0  0  0  0
 31 26  1  0  0  0  0
M  END
>  <Other ID>
EPL-BS0493

>  <sub series>
piperazines

>  <Source>
Epichem

>  <% growth M.myc at 100 uM>
8.382

>  <% growth M.myc at 25 uM>
26.26

>  <M. Myc IC50>


>  <M. Myc IC90>


>  <MIC50>


$$$$
Chemistry 102
  StarDrop          2D                              

 32 35  0  0  0  0  0  0  0  0999 V2000
    4.9460   -3.4943    0.0000 C   0  0  0  0  0  0  0  0  0  0  0  0
    3.8056   -3.8679    0.0000 C   0  0  0  0  0  0  0  0  0  0  0  0
    3.3372   -5.2929    0.0000 N   0  0  0  0  0  0  0  0  0  0  0  0
    1.8372   -5.2877    0.0000 C   0  0  0  0  0  0  0  0  0  0  0  0
    1.3786   -3.8595    0.0000 S   0  0  0  0  0  0  0  0  0  0  0  0
    2.5951   -3.0039    0.0000 C   0  0  0  0  0  0  0  0  0  0  0  0
    2.5973   -1.5031    0.0000 C   0  0  0  0  0  0  0  0  0  0  0  0
    3.6375   -0.9049    0.0000 O   0  0  0  0  0  0  0  0  0  0  0  0
    1.2990   -0.7500    0.0000 N   0  0  0  0  0  0  0  0  0  0  0  0
    1.2990    0.7500    0.0000 C   0  0  0  0  0  0  0  0  0  0  0  0
    0.0000    1.5000    0.0000 C   0  0  0  0  0  0  0  0  0  0  0  0
   -1.2990    0.7500    0.0000 N   0  0  0  0  0  0  0  0  0  0  0  0
   -1.2990   -0.7500    0.0000 C   0  0  0  0  0  0  0  0  0  0  0  0
    0.0000   -1.5000    0.0000 C   0  0  0  0  0  0  0  0  0  0  0  0
   -2.5998    1.4986    0.0000 C   0  0  0  0  0  0  0  0  0  0  0  0
   -3.8983    0.7460    0.0000 C   0  0  0  0  0  0  0  0  0  0  0  0
   -3.8989   -0.7540    0.0000 C   0  0  0  0  0  0  0  0  0  0  0  0
   -5.1982   -1.5035    0.0000 C   0  0  0  0  0  0  0  0  0  0  0  0
   -6.4970   -0.7530    0.0000 C   0  0  0  0  0  0  0  0  0  0  0  0
   -6.4964    0.7470    0.0000 N   0  0  0  0  0  0  0  0  0  0  0  0
   -5.1971    1.4965    0.0000 C   0  0  0  0  0  0  0  0  0  0  0  0
   -2.6013    2.9994    0.0000 C   0  0  0  0  0  0  0  0  0  0  0  0
   -3.9027    3.7455    0.0000 C   0  0  0  0  0  0  0  0  0  0  0  0
   -3.9073    5.2455    0.0000 C   0  0  0  0  0  0  0  0  0  0  0  0
   -2.6105    5.9995    0.0000 C   0  0  0  0  0  0  0  0  0  0  0  0
   -1.3092    5.2535    0.0000 C   0  0  0  0  0  0  0  0  0  0  0  0
   -1.3046    3.7535    0.0000 C   0  0  0  0  0  0  0  0  0  0  0  0
   -0.2635    3.1567    0.0000 F   0  0  0  0  0  0  0  0  0  0  0  0
   -2.6151    7.5003    0.0000 C   0  0  0  0  0  0  0  0  0  0  0  0
   -3.6558    8.0978    0.0000 F   0  0  0  0  0  0  0  0  0  0  0  0
   -1.5776    8.1032    0.0000 F   0  0  0  0  0  0  0  0  0  0  0  0
   -2.6183    8.7003    0.0000 F   0  0  0  0  0  0  0  0  0  0  0  0
  1  2  1  0  0  0  0
  2  3  1  0  0  0  0
  3  4  2  0  0  0  0
  4  5  1  0  0  0  0
  5  6  1  0  0  0  0
  6  2  2  0  0  0  0
  6  7  1  0  0  0  0
  7  8  2  0  0  0  0
  7  9  1  0  0  0  0
  9 10  1  0  0  0  0
 10 11  1  0  0  0  0
 11 12  1  0  0  0  0
 12 13  1  0  0  0  0
 13 14  1  0  0  0  0
 14  9  1  0  0  0  0
 12 15  1  0  0  0  0
 15 16  1  0  0  0  0
 16 17  2  0  0  0  0
 17 18  1  0  0  0  0
 18 19  2  0  0  0  0
 19 20  1  0  0  0  0
 20 21  2  0  0  0  0
 21 16  1  0  0  0  0
 15 22  1  0  0  0  0
 22 23  2  0  0  0  0
 23 24  1  0  0  0  0
 24 25  2  0  0  0  0
 25 26  1  0  0  0  0
 26 27  2  0  0  0  0
 27 22  1  0  0  0  0
 27 28  1  0  0  0  0
 25 29  1  0  0  0  0
 29 30  1  0  0  0  0
 29 31  1  0  0  0  0
 29 32  1  0  0  0  0
M  END
>  <Other ID>
EPL-BS0756

>  <sub series>
piperazines

>  <Source>
Epichem

>  <% growth M.myc at 100 uM>
66.71

>  <% growth M.myc at 25 uM>
83.32

>  <M. Myc IC50>


>  <M. Myc IC90>


>  <MIC50>


$$$$
Chemistry 20
  StarDrop          2D                              

 27 29  0  0  0  0  0  0  0  0999 V2000
    2.5984   -2.7004    0.0000 C   0  0  0  0  0  0  0  0  0  0  0  0
    2.5988   -1.5004    0.0000 S   0  0  0  0  0  0  0  0  0  0  0  0
    3.6384   -0.9011    0.0000 O   0  0  0  0  0  0  0  0  0  0  0  0
    3.6377   -2.1009    0.0000 O   0  0  0  0  0  0  0  0  0  0  0  0
    1.2990   -0.7500    0.0000 N   0  0  0  0  0  0  0  0  0  0  0  0
    1.2990    0.7500    0.0000 C   0  0  0  0  0  0  0  0  0  0  0  0
    0.0000    1.5000    0.0000 C   0  0  0  0  0  0  0  0  0  0  0  0
   -1.2990    0.7500    0.0000 N   0  0  0  0  0  0  0  0  0  0  0  0
   -1.2990   -0.7500    0.0000 C   0  0  0  0  0  0  0  0  0  0  0  0
    0.0000   -1.5000    0.0000 C   0  0  0  0  0  0  0  0  0  0  0  0
   -2.5998    1.4986    0.0000 C   0  0  0  0  0  0  0  0  0  0  0  0
   -3.8983    0.7460    0.0000 C   0  0  0  0  0  0  0  0  0  0  0  0
   -3.8989   -0.7540    0.0000 C   0  0  0  0  0  0  0  0  0  0  0  0
   -5.1982   -1.5035    0.0000 C   0  0  0  0  0  0  0  0  0  0  0  0
   -6.4970   -0.7530    0.0000 C   0  0  0  0  0  0  0  0  0  0  0  0
   -6.4964    0.7470    0.0000 C   0  0  0  0  0  0  0  0  0  0  0  0
   -5.1971    1.4965    0.0000 C   0  0  0  0  0  0  0  0  0  0  0  0
   -7.7970   -1.5030    0.0000 C   0  0  0  0  0  0  0  0  0  0  0  0
   -7.7982   -2.7030    0.0000 F   0  0  0  0  0  0  0  0  0  0  0  0
   -8.8358   -0.9023    0.0000 F   0  0  0  0  0  0  0  0  0  0  0  0
   -8.8367   -2.1021    0.0000 F   0  0  0  0  0  0  0  0  0  0  0  0
   -2.6013    2.9994    0.0000 C   0  0  0  0  0  0  0  0  0  0  0  0
   -1.3046    3.7535    0.0000 C   0  0  0  0  0  0  0  0  0  0  0  0
   -1.3092    5.2535    0.0000 N   0  0  0  0  0  0  0  0  0  0  0  0
   -2.6105    5.9995    0.0000 C   0  0  0  0  0  0  0  0  0  0  0  0
   -3.9073    5.2455    0.0000 N   0  0  0  0  0  0  0  0  0  0  0  0
   -3.9027    3.7455    0.0000 C   0  0  0  0  0  0  0  0  0  0  0  0
  1  2  1  0  0  0  0
  2  3  2  0  0  0  0
  2  4  2  0  0  0  0
  2  5  1  0  0  0  0
  5  6  1  0  0  0  0
  6  7  1  0  0  0  0
  7  8  1  0  0  0  0
  8  9  1  0  0  0  0
  9 10  1  0  0  0  0
 10  5  1  0  0  0  0
  8 11  1  0  0  0  0
 11 12  1  0  0  0  0
 12 13  2  0  0  0  0
 13 14  1  0  0  0  0
 14 15  2  0  0  0  0
 15 16  1  0  0  0  0
 16 17  2  0  0  0  0
 17 12  1  0  0  0  0
 15 18  1  0  0  0  0
 18 19  1  0  0  0  0
 18 20  1  0  0  0  0
 18 21  1  0  0  0  0
 11 22  1  0  0  0  0
 22 23  2  0  0  0  0
 23 24  1  0  0  0  0
 24 25  2  0  0  0  0
 25 26  1  0  0  0  0
 26 27  2  0  0  0  0
 27 22  1  0  0  0  0
M  END
>  <Other ID>
EPL-BS0654

>  <sub series>
piperazines

>  <Source>
Epichem

>  <% growth M.myc at 100 uM>
86.93

>  <% growth M.myc at 25 uM>
92.95

>  <M. Myc IC50>


>  <M. Myc IC90>


>  <MIC50>


$$$$
Chemistry 23
  StarDrop          2D                              

 30 33  0  0  0  0  0  0  0  0999 V2000
    4.6873   -4.3927    0.0000 C   0  0  0  0  0  0  0  0  0  0  0  0
    4.2010   -3.2956    0.0000 C   0  0  0  0  0  0  0  0  0  0  0  0
    4.9531   -1.9978    0.0000 N   0  0  0  0  0  0  0  0  0  0  0  0
    3.9511   -0.8815    0.0000 O   0  0  0  0  0  0  0  0  0  0  0  0
    2.5987   -1.5004    0.0000 C   0  0  0  0  0  0  0  0  0  0  0  0
    2.7343   -2.9815    0.0000 N   0  0  0  0  0  0  0  0  0  0  0  0
    1.2990   -0.7500    0.0000 N   0  0  0  0  0  0  0  0  0  0  0  0
    1.2990    0.7500    0.0000 C   0  0  0  0  0  0  0  0  0  0  0  0
    0.0000    1.5000    0.0000 C   0  0  0  0  0  0  0  0  0  0  0  0
   -1.2990    0.7500    0.0000 N   0  0  0  0  0  0  0  0  0  0  0  0
   -1.2990   -0.7500    0.0000 C   0  0  0  0  0  0  0  0  0  0  0  0
    0.0000   -1.5000    0.0000 C   0  0  0  0  0  0  0  0  0  0  0  0
   -2.5998    1.4986    0.0000 C   0  0  0  0  0  0  0  0  0  0  0  0
   -3.8983    0.7460    0.0000 C   0  0  0  0  0  0  0  0  0  0  0  0
   -3.8989   -0.7540    0.0000 C   0  0  0  0  0  0  0  0  0  0  0  0
   -5.1982   -1.5035    0.0000 N   0  0  0  0  0  0  0  0  0  0  0  0
   -6.4970   -0.7530    0.0000 C   0  0  0  0  0  0  0  0  0  0  0  0
   -6.4964    0.7470    0.0000 N   0  0  0  0  0  0  0  0  0  0  0  0
   -5.1971    1.4965    0.0000 C   0  0  0  0  0  0  0  0  0  0  0  0
   -2.6013    2.9994    0.0000 C   0  0  0  0  0  0  0  0  0  0  0  0
   -3.9027    3.7455    0.0000 C   0  0  0  0  0  0  0  0  0  0  0  0
   -3.9073    5.2455    0.0000 C   0  0  0  0  0  0  0  0  0  0  0  0
   -2.6105    5.9995    0.0000 C   0  0  0  0  0  0  0  0  0  0  0  0
   -1.3092    5.2535    0.0000 C   0  0  0  0  0  0  0  0  0  0  0  0
   -1.3046    3.7535    0.0000 C   0  0  0  0  0  0  0  0  0  0  0  0
   -0.2635    3.1567    0.0000 F   0  0  0  0  0  0  0  0  0  0  0  0
   -2.6151    7.5003    0.0000 C   0  0  0  0  0  0  0  0  0  0  0  0
   -3.6558    8.0978    0.0000 F   0  0  0  0  0  0  0  0  0  0  0  0
   -1.5776    8.1032    0.0000 F   0  0  0  0  0  0  0  0  0  0  0  0
   -2.6183    8.7003    0.0000 F   0  0  0  0  0  0  0  0  0  0  0  0
  1  2  1  0  0  0  0
  2  3  2  0  0  0  0
  3  4  1  0  0  0  0
  4  5  1  0  0  0  0
  5  6  2  0  0  0  0
  6  2  1  0  0  0  0
  5  7  1  0  0  0  0
  7  8  1  0  0  0  0
  8  9  1  0  0  0  0
  9 10  1  0  0  0  0
 10 11  1  0  0  0  0
 11 12  1  0  0  0  0
 12  7  1  0  0  0  0
 10 13  1  0  0  0  0
 13 14  1  0  0  0  0
 14 15  2  0  0  0  0
 15 16  1  0  0  0  0
 16 17  2  0  0  0  0
 17 18  1  0  0  0  0
 18 19  2  0  0  0  0
 19 14  1  0  0  0  0
 13 20  1  0  0  0  0
 20 21  2  0  0  0  0
 21 22  1  0  0  0  0
 22 23  2  0  0  0  0
 23 24  1  0  0  0  0
 24 25  2  0  0  0  0
 25 20  1  0  0  0  0
 25 26  1  0  0  0  0
 23 27  1  0  0  0  0
 27 28  1  0  0  0  0
 27 29  1  0  0  0  0
 27 30  1  0  0  0  0
M  END
>  <Other ID>
EPL-BS0729

>  <sub series>
piperazines

>  <Source>
Epichem

>  <% growth M.myc at 100 uM>
14.76

>  <% growth M.myc at 25 uM>
47.79

>  <M. Myc IC50>


>  <M. Myc IC90>


>  <MIC50>


$$$$
Chemistry 80
  StarDrop          2D                              

 29 32  0  0  0  0  0  0  0  0999 V2000
    3.6387   -0.8963    0.0000 C   0  0  0  0  0  0  0  0  0  0  0  0
    2.6003   -1.4977    0.0000 O   0  0  0  0  0  0  0  0  0  0  0  0
    1.2990   -0.7500    0.0000 C   0  0  0  0  0  0  0  0  0  0  0  0
    1.2990    0.7500    0.0000 C   0  0  0  0  0  0  0  0  0  0  0  0
    0.0000    1.5000    0.0000 C   0  0  0  0  0  0  0  0  0  0  0  0
   -1.2990    0.7500    0.0000 C   0  0  0  0  0  0  0  0  0  0  0  0
   -1.2990   -0.7500    0.0000 C   0  0  0  0  0  0  0  0  0  0  0  0
    0.0000   -1.5000    0.0000 C   0  0  0  0  0  0  0  0  0  0  0  0
    0.0000   -3.0008    0.0000 N   0  0  0  0  0  0  0  0  0  0  0  0
   -1.2978   -3.7529    0.0000 C   0  0  0  0  0  0  0  0  0  0  0  0
   -1.2955   -5.2529    0.0000 C   0  0  0  0  0  0  0  0  0  0  0  0
    0.0048   -6.0009    0.0000 N   0  0  0  0  0  0  0  0  0  0  0  0
    1.3026   -5.2488    0.0000 C   0  0  0  0  0  0  0  0  0  0  0  0
    1.3002   -3.7488    0.0000 C   0  0  0  0  0  0  0  0  0  0  0  0
    0.0092   -7.5016    0.0000 C   0  0  0  0  0  0  0  0  0  0  0  0
    1.3114   -8.2478    0.0000 C   0  0  0  0  0  0  0  0  0  0  0  0
    2.6096   -7.4963    0.0000 C   0  0  0  0  0  0  0  0  0  0  0  0
    3.9095   -8.2447    0.0000 N   0  0  0  0  0  0  0  0  0  0  0  0
    3.9114   -9.7447    0.0000 C   0  0  0  0  0  0  0  0  0  0  0  0
    2.6132  -10.4963    0.0000 N   0  0  0  0  0  0  0  0  0  0  0  0
    1.3133   -9.7479    0.0000 C   0  0  0  0  0  0  0  0  0  0  0  0
   -1.2886   -8.2554    0.0000 C   0  0  0  0  0  0  0  0  0  0  0  0
   -1.2817   -9.7555    0.0000 C   0  0  0  0  0  0  0  0  0  0  0  0
   -2.5772  -10.5115    0.0000 C   0  0  0  0  0  0  0  0  0  0  0  0
   -3.8797   -9.7676    0.0000 C   0  0  0  0  0  0  0  0  0  0  0  0
   -4.9162  -10.3724    0.0000 Cl  0  0  0  0  0  0  0  0  0  0  0  0
   -3.8867   -8.2676    0.0000 C   0  0  0  0  0  0  0  0  0  0  0  0
   -2.5912   -7.5116    0.0000 C   0  0  0  0  0  0  0  0  0  0  0  0
   -2.5968   -6.3116    0.0000 F   0  0  0  0  0  0  0  0  0  0  0  0
  1  2  1  0  0  0  0
  2  3  1  0  0  0  0
  3  4  2  0  0  0  0
  4  5  1  0  0  0  0
  5  6  2  0  0  0  0
  6  7  1  0  0  0  0
  7  8  2  0  0  0  0
  8  3  1  0  0  0  0
  8  9  1  0  0  0  0
  9 10  1  0  0  0  0
 10 11  1  0  0  0  0
 11 12  1  0  0  0  0
 12 13  1  0  0  0  0
 13 14  1  0  0  0  0
 14  9  1  0  0  0  0
 12 15  1  0  0  0  0
 15 16  1  0  0  0  0
 16 17  2  0  0  0  0
 17 18  1  0  0  0  0
 18 19  2  0  0  0  0
 19 20  1  0  0  0  0
 20 21  2  0  0  0  0
 21 16  1  0  0  0  0
 15 22  1  0  0  0  0
 22 23  2  0  0  0  0
 23 24  1  0  0  0  0
 24 25  2  0  0  0  0
 25 26  1  0  0  0  0
 25 27  1  0  0  0  0
 27 28  2  0  0  0  0
 28 22  1  0  0  0  0
 28 29  1  0  0  0  0
M  END
>  <Other ID>
EPL-BS0348

>  <sub series>
piperazines

>  <Source>
Epichem

>  <% growth M.myc at 100 uM>
82.07

>  <% growth M.myc at 25 uM>
83.4

>  <M. Myc IC50>


>  <M. Myc IC90>


>  <MIC50>


$$$$
Chemistry 81
  StarDrop          2D                              

 24 26  0  0  0  0  0  0  0  0999 V2000
    3.6331   -3.6060    0.0000 C   0  0  0  0  0  0  0  0  0  0  0  0
    2.5951   -3.0039    0.0000 C   0  0  0  0  0  0  0  0  0  0  0  0
    2.5973   -1.5031    0.0000 C   0  0  0  0  0  0  0  0  0  0  0  0
    3.6375   -0.9049    0.0000 O   0  0  0  0  0  0  0  0  0  0  0  0
    1.2990   -0.7500    0.0000 N   0  0  0  0  0  0  0  0  0  0  0  0
    1.2990    0.7500    0.0000 C   0  0  0  0  0  0  0  0  0  0  0  0
    0.0000    1.5000    0.0000 C   0  0  0  0  0  0  0  0  0  0  0  0
   -1.2990    0.7500    0.0000 N   0  0  0  0  0  0  0  0  0  0  0  0
   -1.2990   -0.7500    0.0000 C   0  0  0  0  0  0  0  0  0  0  0  0
    0.0000   -1.5000    0.0000 C   0  0  0  0  0  0  0  0  0  0  0  0
   -2.5998    1.4986    0.0000 C   0  0  0  0  0  0  0  0  0  0  0  0
   -3.8983    0.7460    0.0000 C   0  0  0  0  0  0  0  0  0  0  0  0
   -3.8989   -0.7540    0.0000 C   0  0  0  0  0  0  0  0  0  0  0  0
   -5.1982   -1.5035    0.0000 C   0  0  0  0  0  0  0  0  0  0  0  0
   -6.4970   -0.7530    0.0000 C   0  0  0  0  0  0  0  0  0  0  0  0
   -7.5364   -1.3527    0.0000 Cl  0  0  0  0  0  0  0  0  0  0  0  0
   -6.4964    0.7470    0.0000 C   0  0  0  0  0  0  0  0  0  0  0  0
   -5.1971    1.4965    0.0000 C   0  0  0  0  0  0  0  0  0  0  0  0
   -2.6013    2.9994    0.0000 C   0  0  0  0  0  0  0  0  0  0  0  0
   -1.3046    3.7535    0.0000 C   0  0  0  0  0  0  0  0  0  0  0  0
   -1.3092    5.2535    0.0000 N   0  0  0  0  0  0  0  0  0  0  0  0
   -2.6105    5.9995    0.0000 C   0  0  0  0  0  0  0  0  0  0  0  0
   -3.9073    5.2455    0.0000 N   0  0  0  0  0  0  0  0  0  0  0  0
   -3.9027    3.7455    0.0000 C   0  0  0  0  0  0  0  0  0  0  0  0
  1  2  1  0  0  0  0
  2  3  1  0  0  0  0
  3  4  2  0  0  0  0
  3  5  1  0  0  0  0
  5  6  1  0  0  0  0
  6  7  1  0  0  0  0
  7  8  1  0  0  0  0
  8  9  1  0  0  0  0
  9 10  1  0  0  0  0
 10  5  1  0  0  0  0
  8 11  1  0  0  0  0
 11 12  1  0  0  0  0
 12 13  2  0  0  0  0
 13 14  1  0  0  0  0
 14 15  2  0  0  0  0
 15 16  1  0  0  0  0
 15 17  1  0  0  0  0
 17 18  2  0  0  0  0
 18 12  1  0  0  0  0
 11 19  1  0  0  0  0
 19 20  2  0  0  0  0
 20 21  1  0  0  0  0
 21 22  2  0  0  0  0
 22 23  1  0  0  0  0
 23 24  2  0  0  0  0
 24 19  1  0  0  0  0
M  END
>  <Other ID>
EPL-BS0356

>  <sub series>
piperazines

>  <Source>
Epichem

>  <% growth M.myc at 100 uM>
93.47

>  <% growth M.myc at 25 uM>
100.8

>  <M. Myc IC50>


>  <M. Myc IC90>


>  <MIC50>


$$$$
Chemistry 82
  StarDrop          2D                              

 25 28  0  0  0  0  0  0  0  0999 V2000
    2.3383   -1.3500    0.0000 Cl  0  0  0  0  0  0  0  0  0  0  0  0
    1.2990   -0.7500    0.0000 C   0  0  0  0  0  0  0  0  0  0  0  0
    1.2990    0.7500    0.0000 C   0  0  0  0  0  0  0  0  0  0  0  0
    0.0000    1.5000    0.0000 C   0  0  0  0  0  0  0  0  0  0  0  0
   -1.2990    0.7500    0.0000 C   0  0  0  0  0  0  0  0  0  0  0  0
   -1.2990   -0.7500    0.0000 C   0  0  0  0  0  0  0  0  0  0  0  0
    0.0000   -1.5000    0.0000 C   0  0  0  0  0  0  0  0  0  0  0  0
   -2.6003    1.4977    0.0000 C   0  0  0  0  0  0  0  0  0  0  0  0
   -2.6030    2.9985    0.0000 N   0  0  0  0  0  0  0  0  0  0  0  0
   -3.9023    3.7481    0.0000 C   0  0  0  0  0  0  0  0  0  0  0  0
   -3.9029    5.2481    0.0000 C   0  0  0  0  0  0  0  0  0  0  0  0
   -2.6041    5.9986    0.0000 N   0  0  0  0  0  0  0  0  0  0  0  0
   -1.3048    5.2491    0.0000 C   0  0  0  0  0  0  0  0  0  0  0  0
   -1.3042    3.7491    0.0000 C   0  0  0  0  0  0  0  0  0  0  0  0
   -2.6016    7.4994    0.0000 C   0  0  0  0  0  0  0  0  0  0  0  0
   -3.6400    8.1009    0.0000 O   0  0  0  0  0  0  0  0  0  0  0  0
   -1.3011    8.2485    0.0000 C   0  0  0  0  0  0  0  0  0  0  0  0
   -0.6263    9.4997    0.0000 C   0  0  0  0  0  0  0  0  0  0  0  0
    0.1196    8.1983    0.0000 C   0  0  0  0  0  0  0  0  0  0  0  0
   -3.8990    0.7455    0.0000 C   0  0  0  0  0  0  0  0  0  0  0  0
   -5.2007    1.4909    0.0000 C   0  0  0  0  0  0  0  0  0  0  0  0
   -6.4972    0.7364    0.0000 N   0  0  0  0  0  0  0  0  0  0  0  0
   -6.4920   -0.7636    0.0000 C   0  0  0  0  0  0  0  0  0  0  0  0
   -5.1903   -1.5091    0.0000 N   0  0  0  0  0  0  0  0  0  0  0  0
   -3.8939   -0.7546    0.0000 C   0  0  0  0  0  0  0  0  0  0  0  0
  1  2  1  0  0  0  0
  2  3  2  0  0  0  0
  3  4  1  0  0  0  0
  4  5  2  0  0  0  0
  5  6  1  0  0  0  0
  6  7  2  0  0  0  0
  7  2  1  0  0  0  0
  5  8  1  0  0  0  0
  8  9  1  0  0  0  0
  9 10  1  0  0  0  0
 10 11  1  0  0  0  0
 11 12  1  0  0  0  0
 12 13  1  0  0  0  0
 13 14  1  0  0  0  0
 14  9  1  0  0  0  0
 12 15  1  0  0  0  0
 15 16  2  0  0  0  0
 15 17  1  0  0  0  0
 17 18  1  0  0  0  0
 18 19  1  0  0  0  0
 19 17  1  0  0  0  0
  8 20  1  0  0  0  0
 20 21  2  0  0  0  0
 21 22  1  0  0  0  0
 22 23  2  0  0  0  0
 23 24  1  0  0  0  0
 24 25  2  0  0  0  0
 25 20  1  0  0  0  0
M  END
>  <Other ID>
EPL-BS0358

>  <sub series>
piperazines

>  <Source>
Epichem

>  <% growth M.myc at 100 uM>
74.68

>  <% growth M.myc at 25 uM>
90.84

>  <M. Myc IC50>


>  <M. Myc IC90>


>  <MIC50>


$$$$
Chemistry 83
  StarDrop          2D                              

 30 33  0  0  0  0  0  0  0  0999 V2000
    2.3383   -1.3500    0.0000 Cl  0  0  0  0  0  0  0  0  0  0  0  0
    1.2990   -0.7500    0.0000 C   0  0  0  0  0  0  0  0  0  0  0  0
    1.2990    0.7500    0.0000 C   0  0  0  0  0  0  0  0  0  0  0  0
    0.0000    1.5000    0.0000 C   0  0  0  0  0  0  0  0  0  0  0  0
   -1.2990    0.7500    0.0000 C   0  0  0  0  0  0  0  0  0  0  0  0
   -1.2990   -0.7500    0.0000 C   0  0  0  0  0  0  0  0  0  0  0  0
    0.0000   -1.5000    0.0000 C   0  0  0  0  0  0  0  0  0  0  0  0
   -2.6003    1.4977    0.0000 C   0  0  0  0  0  0  0  0  0  0  0  0
   -2.6030    2.9985    0.0000 N   0  0  0  0  0  0  0  0  0  0  0  0
   -3.9023    3.7481    0.0000 C   0  0  0  0  0  0  0  0  0  0  0  0
   -3.9029    5.2481    0.0000 C   0  0  0  0  0  0  0  0  0  0  0  0
   -2.6041    5.9986    0.0000 N   0  0  0  0  0  0  0  0  0  0  0  0
   -1.3048    5.2491    0.0000 C   0  0  0  0  0  0  0  0  0  0  0  0
   -1.3042    3.7491    0.0000 C   0  0  0  0  0  0  0  0  0  0  0  0
   -2.6047    7.4994    0.0000 S   0  0  0  0  0  0  0  0  0  0  0  0
   -1.5655    8.0995    0.0000 O   0  0  0  0  0  0  0  0  0  0  0  0
   -2.6046    8.6994    0.0000 O   0  0  0  0  0  0  0  0  0  0  0  0
   -3.9043    8.2502    0.0000 C   0  0  0  0  0  0  0  0  0  0  0  0
   -3.9048    9.7510    0.0000 C   0  0  0  0  0  0  0  0  0  0  0  0
   -5.2026   10.5032    0.0000 C   0  0  0  0  0  0  0  0  0  0  0  0
   -5.2001   12.0032    0.0000 C   0  0  0  0  0  0  0  0  0  0  0  0
   -3.8998   12.7511    0.0000 C   0  0  0  0  0  0  0  0  0  0  0  0
   -2.6020   11.9989    0.0000 C   0  0  0  0  0  0  0  0  0  0  0  0
   -2.6045   10.4989    0.0000 C   0  0  0  0  0  0  0  0  0  0  0  0
   -3.8990    0.7455    0.0000 C   0  0  0  0  0  0  0  0  0  0  0  0
   -5.2007    1.4909    0.0000 C   0  0  0  0  0  0  0  0  0  0  0  0
   -6.4972    0.7364    0.0000 N   0  0  0  0  0  0  0  0  0  0  0  0
   -6.4920   -0.7636    0.0000 C   0  0  0  0  0  0  0  0  0  0  0  0
   -5.1903   -1.5091    0.0000 N   0  0  0  0  0  0  0  0  0  0  0  0
   -3.8939   -0.7546    0.0000 C   0  0  0  0  0  0  0  0  0  0  0  0
  1  2  1  0  0  0  0
  2  3  2  0  0  0  0
  3  4  1  0  0  0  0
  4  5  2  0  0  0  0
  5  6  1  0  0  0  0
  6  7  2  0  0  0  0
  7  2  1  0  0  0  0
  5  8  1  0  0  0  0
  8  9  1  0  0  0  0
  9 10  1  0  0  0  0
 10 11  1  0  0  0  0
 11 12  1  0  0  0  0
 12 13  1  0  0  0  0
 13 14  1  0  0  0  0
 14  9  1  0  0  0  0
 12 15  1  0  0  0  0
 15 16  2  0  0  0  0
 15 17  2  0  0  0  0
 15 18  1  0  0  0  0
 18 19  1  0  0  0  0
 19 20  2  0  0  0  0
 20 21  1  0  0  0  0
 21 22  2  0  0  0  0
 22 23  1  0  0  0  0
 23 24  2  0  0  0  0
 24 19  1  0  0  0  0
  8 25  1  0  0  0  0
 25 26  2  0  0  0  0
 26 27  1  0  0  0  0
 27 28  2  0  0  0  0
 28 29  1  0  0  0  0
 29 30  2  0  0  0  0
 30 25  1  0  0  0  0
M  END
>  <Other ID>
EPL-BS0361

>  <sub series>
piperazines

>  <Source>
Epichem

>  <% growth M.myc at 100 uM>
47.44

>  <% growth M.myc at 25 uM>
68.66

>  <M. Myc IC50>


>  <M. Myc IC90>


>  <MIC50>


$$$$
Chemistry 84
  StarDrop          2D                              

 30 33  0  0  0  0  0  0  0  0999 V2000
    2.3383   -1.3500    0.0000 Cl  0  0  0  0  0  0  0  0  0  0  0  0
    1.2990   -0.7500    0.0000 C   0  0  0  0  0  0  0  0  0  0  0  0
    1.2990    0.7500    0.0000 C   0  0  0  0  0  0  0  0  0  0  0  0
    0.0000    1.5000    0.0000 C   0  0  0  0  0  0  0  0  0  0  0  0
   -1.2990    0.7500    0.0000 C   0  0  0  0  0  0  0  0  0  0  0  0
   -1.2990   -0.7500    0.0000 C   0  0  0  0  0  0  0  0  0  0  0  0
    0.0000   -1.5000    0.0000 C   0  0  0  0  0  0  0  0  0  0  0  0
   -2.6003    1.4977    0.0000 C   0  0  0  0  0  0  0  0  0  0  0  0
   -2.6030    2.9985    0.0000 N   0  0  0  0  0  0  0  0  0  0  0  0
   -3.9023    3.7481    0.0000 C   0  0  0  0  0  0  0  0  0  0  0  0
   -3.9029    5.2481    0.0000 C   0  0  0  0  0  0  0  0  0  0  0  0
   -2.6041    5.9986    0.0000 N   0  0  0  0  0  0  0  0  0  0  0  0
   -1.3048    5.2491    0.0000 C   0  0  0  0  0  0  0  0  0  0  0  0
   -1.3042    3.7491    0.0000 C   0  0  0  0  0  0  0  0  0  0  0  0
   -2.6047    7.4994    0.0000 S   0  0  0  0  0  0  0  0  0  0  0  0
   -1.5655    8.0995    0.0000 O   0  0  0  0  0  0  0  0  0  0  0  0
   -1.5653    6.8997    0.0000 O   0  0  0  0  0  0  0  0  0  0  0  0
   -3.9043    8.2502    0.0000 C   0  0  0  0  0  0  0  0  0  0  0  0
   -5.2035    7.5005    0.0000 C   0  0  0  0  0  0  0  0  0  0  0  0
   -6.5023    8.2508    0.0000 C   0  0  0  0  0  0  0  0  0  0  0  0
   -6.5020    9.7508    0.0000 C   0  0  0  0  0  0  0  0  0  0  0  0
   -7.5410   10.3511    0.0000 Cl  0  0  0  0  0  0  0  0  0  0  0  0
   -5.2027   10.5005    0.0000 C   0  0  0  0  0  0  0  0  0  0  0  0
   -3.9039    9.7502    0.0000 C   0  0  0  0  0  0  0  0  0  0  0  0
   -3.8990    0.7455    0.0000 C   0  0  0  0  0  0  0  0  0  0  0  0
   -5.2007    1.4909    0.0000 C   0  0  0  0  0  0  0  0  0  0  0  0
   -6.4972    0.7364    0.0000 N   0  0  0  0  0  0  0  0  0  0  0  0
   -6.4920   -0.7636    0.0000 C   0  0  0  0  0  0  0  0  0  0  0  0
   -5.1903   -1.5091    0.0000 N   0  0  0  0  0  0  0  0  0  0  0  0
   -3.8939   -0.7546    0.0000 C   0  0  0  0  0  0  0  0  0  0  0  0
  1  2  1  0  0  0  0
  2  3  2  0  0  0  0
  3  4  1  0  0  0  0
  4  5  2  0  0  0  0
  5  6  1  0  0  0  0
  6  7  2  0  0  0  0
  7  2  1  0  0  0  0
  5  8  1  0  0  0  0
  8  9  1  0  0  0  0
  9 10  1  0  0  0  0
 10 11  1  0  0  0  0
 11 12  1  0  0  0  0
 12 13  1  0  0  0  0
 13 14  1  0  0  0  0
 14  9  1  0  0  0  0
 12 15  1  0  0  0  0
 15 16  2  0  0  0  0
 15 17  2  0  0  0  0
 15 18  1  0  0  0  0
 18 19  2  0  0  0  0
 19 20  1  0  0  0  0
 20 21  2  0  0  0  0
 21 22  1  0  0  0  0
 21 23  1  0  0  0  0
 23 24  2  0  0  0  0
 24 18  1  0  0  0  0
  8 25  1  0  0  0  0
 25 26  2  0  0  0  0
 26 27  1  0  0  0  0
 27 28  2  0  0  0  0
 28 29  1  0  0  0  0
 29 30  2  0  0  0  0
 30 25  1  0  0  0  0
M  END
>  <Other ID>
EPL-BS0362

>  <sub series>
piperazines

>  <Source>
Epichem

>  <% growth M.myc at 100 uM>
83.19

>  <% growth M.myc at 25 uM>
85.78

>  <M. Myc IC50>


>  <M. Myc IC90>


>  <MIC50>


$$$$
Chemistry 99
  StarDrop          2D                              

 26 29  0  0  0  0  0  0  0  0999 V2000
    2.3383   -1.3500    0.0000 F   0  0  0  0  0  0  0  0  0  0  0  0
    1.2990   -0.7500    0.0000 C   0  0  0  0  0  0  0  0  0  0  0  0
    1.2990    0.7500    0.0000 C   0  0  0  0  0  0  0  0  0  0  0  0
    0.0000    1.5000    0.0000 C   0  0  0  0  0  0  0  0  0  0  0  0
    0.0000    2.7000    0.0000 Cl  0  0  0  0  0  0  0  0  0  0  0  0
   -1.2990    0.7500    0.0000 C   0  0  0  0  0  0  0  0  0  0  0  0
   -1.2990   -0.7500    0.0000 C   0  0  0  0  0  0  0  0  0  0  0  0
    0.0000   -1.5000    0.0000 C   0  0  0  0  0  0  0  0  0  0  0  0
   -0.0031   -3.0008    0.0000 C   0  0  0  0  0  0  0  0  0  0  0  0
    1.2953   -3.7535    0.0000 N   0  0  0  0  0  0  0  0  0  0  0  0
    1.2948   -5.2535    0.0000 C   0  0  0  0  0  0  0  0  0  0  0  0
    2.5936   -6.0040    0.0000 C   0  0  0  0  0  0  0  0  0  0  0  0
    3.8929   -5.2545    0.0000 N   0  0  0  0  0  0  0  0  0  0  0  0
    3.8935   -3.7545    0.0000 C   0  0  0  0  0  0  0  0  0  0  0  0
    2.5947   -3.0040    0.0000 C   0  0  0  0  0  0  0  0  0  0  0  0
    5.1939   -6.0027    0.0000 C   0  0  0  0  0  0  0  0  0  0  0  0
    5.1956   -7.2027    0.0000 O   0  0  0  0  0  0  0  0  0  0  0  0
    6.4929   -5.2510    0.0000 C   0  0  0  0  0  0  0  0  0  0  0  0
    7.9139   -5.2922    0.0000 C   0  0  0  0  0  0  0  0  0  0  0  0
    7.1598   -3.9955    0.0000 C   0  0  0  0  0  0  0  0  0  0  0  0
   -1.3039   -3.7494    0.0000 C   0  0  0  0  0  0  0  0  0  0  0  0
   -1.3092   -5.2494    0.0000 C   0  0  0  0  0  0  0  0  0  0  0  0
   -2.6108   -5.9949    0.0000 N   0  0  0  0  0  0  0  0  0  0  0  0
   -3.9072   -5.2404    0.0000 C   0  0  0  0  0  0  0  0  0  0  0  0
   -3.9020   -3.7404    0.0000 N   0  0  0  0  0  0  0  0  0  0  0  0
   -2.6004   -2.9949    0.0000 C   0  0  0  0  0  0  0  0  0  0  0  0
  1  2  1  0  0  0  0
  2  3  2  0  0  0  0
  3  4  1  0  0  0  0
  4  5  1  0  0  0  0
  4  6  2  0  0  0  0
  6  7  1  0  0  0  0
  7  8  2  0  0  0  0
  8  2  1  0  0  0  0
  8  9  1  0  0  0  0
  9 10  1  0  0  0  0
 10 11  1  0  0  0  0
 11 12  1  0  0  0  0
 12 13  1  0  0  0  0
 13 14  1  0  0  0  0
 14 15  1  0  0  0  0
 15 10  1  0  0  0  0
 13 16  1  0  0  0  0
 16 17  2  0  0  0  0
 16 18  1  0  0  0  0
 18 19  1  0  0  0  0
 19 20  1  0  0  0  0
 20 18  1  0  0  0  0
  9 21  1  0  0  0  0
 21 22  2  0  0  0  0
 22 23  1  0  0  0  0
 23 24  2  0  0  0  0
 24 25  1  0  0  0  0
 25 26  2  0  0  0  0
 26 21  1  0  0  0  0
M  END
>  <Other ID>
EPL-BS0603

>  <sub series>
piperazines

>  <Source>
Epichem

>  <% growth M.myc at 100 uM>
73.94

>  <% growth M.myc at 25 uM>
89.3

>  <M. Myc IC50>


>  <M. Myc IC90>


>  <MIC50>


$$$$
Chemistry 101
  StarDrop          2D                              

 30 33  0  0  0  0  0  0  0  0999 V2000
    2.3383   -1.3500    0.0000 F   0  0  0  0  0  0  0  0  0  0  0  0
    1.2990   -0.7500    0.0000 C   0  0  0  0  0  0  0  0  0  0  0  0
    1.2990    0.7500    0.0000 C   0  0  0  0  0  0  0  0  0  0  0  0
    0.0000    1.5000    0.0000 C   0  0  0  0  0  0  0  0  0  0  0  0
   -1.2990    0.7500    0.0000 C   0  0  0  0  0  0  0  0  0  0  0  0
   -1.2990   -0.7500    0.0000 C   0  0  0  0  0  0  0  0  0  0  0  0
    0.0000   -1.5000    0.0000 C   0  0  0  0  0  0  0  0  0  0  0  0
   -0.0031   -3.0008    0.0000 C   0  0  0  0  0  0  0  0  0  0  0  0
    1.2953   -3.7535    0.0000 N   0  0  0  0  0  0  0  0  0  0  0  0
    1.2948   -5.2535    0.0000 C   0  0  0  0  0  0  0  0  0  0  0  0
    2.5936   -6.0040    0.0000 C   0  0  0  0  0  0  0  0  0  0  0  0
    3.8929   -5.2545    0.0000 N   0  0  0  0  0  0  0  0  0  0  0  0
    3.8935   -3.7545    0.0000 C   0  0  0  0  0  0  0  0  0  0  0  0
    2.5947   -3.0040    0.0000 C   0  0  0  0  0  0  0  0  0  0  0  0
    5.1939   -6.0027    0.0000 C   0  0  0  0  0  0  0  0  0  0  0  0
    5.1956   -7.2027    0.0000 O   0  0  0  0  0  0  0  0  0  0  0  0
    6.4929   -5.2510    0.0000 N   0  0  0  0  0  0  0  0  0  0  0  0
    7.7939   -5.9992    0.0000 C   0  0  0  0  0  0  0  0  0  0  0  0
    9.2148   -5.9541    0.0000 C   0  0  0  0  0  0  0  0  0  0  0  0
    8.4642   -7.2528    0.0000 C   0  0  0  0  0  0  0  0  0  0  0  0
   -1.3039   -3.7494    0.0000 C   0  0  0  0  0  0  0  0  0  0  0  0
   -1.3092   -5.2494    0.0000 C   0  0  0  0  0  0  0  0  0  0  0  0
   -2.6108   -5.9949    0.0000 N   0  0  0  0  0  0  0  0  0  0  0  0
   -3.9072   -5.2404    0.0000 C   0  0  0  0  0  0  0  0  0  0  0  0
   -3.9020   -3.7404    0.0000 N   0  0  0  0  0  0  0  0  0  0  0  0
   -2.6004   -2.9949    0.0000 C   0  0  0  0  0  0  0  0  0  0  0  0
    0.0000    3.0008    0.0000 C   0  0  0  0  0  0  0  0  0  0  0  0
    1.0388    3.6015    0.0000 F   0  0  0  0  0  0  0  0  0  0  0  0
   -1.0394    3.6005    0.0000 F   0  0  0  0  0  0  0  0  0  0  0  0
   -0.0006    4.2008    0.0000 F   0  0  0  0  0  0  0  0  0  0  0  0
  1  2  1  0  0  0  0
  2  3  2  0  0  0  0
  3  4  1  0  0  0  0
  4  5  2  0  0  0  0
  5  6  1  0  0  0  0
  6  7  2  0  0  0  0
  7  2  1  0  0  0  0
  7  8  1  0  0  0  0
  8  9  1  0  0  0  0
  9 10  1  0  0  0  0
 10 11  1  0  0  0  0
 11 12  1  0  0  0  0
 12 13  1  0  0  0  0
 13 14  1  0  0  0  0
 14  9  1  0  0  0  0
 12 15  1  0  0  0  0
 15 16  2  0  0  0  0
 15 17  1  0  0  0  0
 17 18  1  0  0  0  0
 18 19  1  0  0  0  0
 19 20  1  0  0  0  0
 20 18  1  0  0  0  0
  8 21  1  0  0  0  0
 21 22  2  0  0  0  0
 22 23  1  0  0  0  0
 23 24  2  0  0  0  0
 24 25  1  0  0  0  0
 25 26  2  0  0  0  0
 26 21  1  0  0  0  0
  4 27  1  0  0  0  0
 27 28  1  0  0  0  0
 27 29  1  0  0  0  0
 27 30  1  0  0  0  0
M  END
>  <Other ID>
EPL-BS0642

>  <sub series>
piperazines

>  <Source>
Epichem

>  <% growth M.myc at 100 uM>
59.6

>  <% growth M.myc at 25 uM>
93.05

>  <M. Myc IC50>


>  <M. Myc IC90>


>  <MIC50>


$$$$
Chemistry 45
  StarDrop          2D                              

 22 24  0  0  0  0  0  0  0  0999 V2000
    1.8530   -3.0272    0.0000 N   0  0  0  0  0  0  0  0  0  0  0  0
    2.2638   -1.8997    0.0000 C   0  0  0  0  0  0  0  0  0  0  0  0
    1.2990   -0.7500    0.0000 C   0  0  0  0  0  0  0  0  0  0  0  0
    1.2990    0.7500    0.0000 C   0  0  0  0  0  0  0  0  0  0  0  0
    0.0000    1.5000    0.0000 C   0  0  0  0  0  0  0  0  0  0  0  0
   -1.2990    0.7500    0.0000 C   0  0  0  0  0  0  0  0  0  0  0  0
   -2.3383    1.3500    0.0000 Cl  0  0  0  0  0  0  0  0  0  0  0  0
   -1.2990   -0.7500    0.0000 C   0  0  0  0  0  0  0  0  0  0  0  0
    0.0000   -1.5000    0.0000 C   0  0  0  0  0  0  0  0  0  0  0  0
    3.7419   -1.6400    0.0000 C   0  0  0  0  0  0  0  0  0  0  0  0
    4.7054   -2.7897    0.0000 C   0  0  0  0  0  0  0  0  0  0  0  0
    6.1828   -2.5302    0.0000 C   0  0  0  0  0  0  0  0  0  0  0  0
    6.6967   -1.1209    0.0000 C   0  0  0  0  0  0  0  0  0  0  0  0
    5.7332    0.0287    0.0000 C   0  0  0  0  0  0  0  0  0  0  0  0
    4.2559   -0.2308    0.0000 C   0  0  0  0  0  0  0  0  0  0  0  0
    3.4851    0.6889    0.0000 Br  0  0  0  0  0  0  0  0  0  0  0  0
    0.7858   -2.1601    0.0000 C   0  0  0  0  0  0  0  0  0  0  0  0
    0.2725   -3.5695    0.0000 C   0  0  0  0  0  0  0  0  0  0  0  0
   -1.2047   -3.8298    0.0000 N   0  0  0  0  0  0  0  0  0  0  0  0
   -2.1687   -2.6805    0.0000 C   0  0  0  0  0  0  0  0  0  0  0  0
   -1.6555   -1.2711    0.0000 C   0  0  0  0  0  0  0  0  0  0  0  0
   -0.1782   -1.0108    0.0000 C   0  0  0  0  0  0  0  0  0  0  0  0
  1  2  1  0  0  0  0
  2  3  1  0  0  0  0
  3  4  2  0  0  0  0
  4  5  1  0  0  0  0
  5  6  2  0  0  0  0
  6  7  1  0  0  0  0
  6  8  1  0  0  0  0
  8  9  2  0  0  0  0
  9  3  1  0  0  0  0
  2 10  1  0  0  0  0
 10 11  2  0  0  0  0
 11 12  1  0  0  0  0
 12 13  2  0  0  0  0
 13 14  1  0  0  0  0
 14 15  2  0  0  0  0
 15 10  1  0  0  0  0
 15 16  1  0  0  0  0
  2 17  1  0  0  0  0
 17 18  2  0  0  0  0
 18 19  1  0  0  0  0
 19 20  2  0  0  0  0
 20 21  1  0  0  0  0
 21 22  2  0  0  0  0
 22 17  1  0  0  0  0
M  END
>  <Other ID>
HPD25_1

>  <sub series>
triarylmethylenes

>  <Source>
Sydney

>  <% growth M.myc at 100 uM>


>  <% growth M.myc at 25 uM>


>  <M. Myc IC50>


>  <M. Myc IC90>


>  <MIC50>


$$$$
Chemistry 3
  StarDrop          2D                              

 23 25  0  0  0  0  0  0  0  0999 V2000
    2.3407   -0.6718    0.0000 O   0  0  0  0  0  0  0  0  0  0  0  0
    3.1121   -1.5911    0.0000 C   0  0  0  0  0  0  0  0  0  0  0  0
    2.5983   -3.0012    0.0000 C   0  0  0  0  0  0  0  0  0  0  0  0
    3.8971   -3.7516    0.0000 C   0  0  0  0  0  0  0  0  0  0  0  0
    3.8966   -5.2516    0.0000 C   0  0  0  0  0  0  0  0  0  0  0  0
    2.5974   -6.0012    0.0000 C   0  0  0  0  0  0  0  0  0  0  0  0
    2.5970   -7.2012    0.0000 Cl  0  0  0  0  0  0  0  0  0  0  0  0
    1.2986   -5.2508    0.0000 C   0  0  0  0  0  0  0  0  0  0  0  0
    1.2990   -3.7508    0.0000 C   0  0  0  0  0  0  0  0  0  0  0  0
    4.5900   -1.3300    0.0000 C   0  0  0  0  0  0  0  0  0  0  0  0
    5.1026    0.0797    0.0000 C   0  0  0  0  0  0  0  0  0  0  0  0
    6.5797    0.3407    0.0000 C   0  0  0  0  0  0  0  0  0  0  0  0
    7.5443   -0.8081    0.0000 C   0  0  0  0  0  0  0  0  0  0  0  0
    7.0317   -2.2178    0.0000 N   0  0  0  0  0  0  0  0  0  0  0  0
    5.5546   -2.4788    0.0000 C   0  0  0  0  0  0  0  0  0  0  0  0
    1.6341   -1.8515    0.0000 C   0  0  0  0  0  0  0  0  0  0  0  0
    1.1208   -3.2609    0.0000 C   0  0  0  0  0  0  0  0  0  0  0  0
   -0.3564   -3.5212    0.0000 C   0  0  0  0  0  0  0  0  0  0  0  0
   -1.3204   -2.3719    0.0000 C   0  0  0  0  0  0  0  0  0  0  0  0
   -0.8072   -0.9625    0.0000 C   0  0  0  0  0  0  0  0  0  0  0  0
    0.6701   -0.7022    0.0000 C   0  0  0  0  0  0  0  0  0  0  0  0
    1.1836    0.7080    0.0000 C   0  0  0  0  0  0  0  0  0  0  0  0
    1.5942    1.8356    0.0000 N   0  0  0  0  0  0  0  0  0  0  0  0
  1  2  1  0  0  0  0
  2  3  1  0  0  0  0
  3  4  2  0  0  0  0
  4  5  1  0  0  0  0
  5  6  2  0  0  0  0
  6  7  1  0  0  0  0
  6  8  1  0  0  0  0
  8  9  2  0  0  0  0
  9  3  1  0  0  0  0
  2 10  1  0  0  0  0
 10 11  2  0  0  0  0
 11 12  1  0  0  0  0
 12 13  2  0  0  0  0
 13 14  1  0  0  0  0
 14 15  2  0  0  0  0
 15 10  1  0  0  0  0
  2 16  1  0  0  0  0
 16 17  2  0  0  0  0
 17 18  1  0  0  0  0
 18 19  2  0  0  0  0
 19 20  1  0  0  0  0
 20 21  2  0  0  0  0
 21 16  1  0  0  0  0
 21 22  1  0  0  0  0
 22 23  3  0  0  0  0
M  END
>  <Other ID>
EPL-BS0178

>  <sub series>
triarylmethylenes

>  <Source>
Epichem

>  <% growth M.myc at 100 uM>
-0.7912

>  <% growth M.myc at 25 uM>
19.51

>  <M. Myc IC50>
1.25

>  <M. Myc IC90>
1.8

>  <MIC50>
8

$$$$
Chemistry 25
  StarDrop          2D                              

 27 29  0  0  0  0  0  0  0  0999 V2000
    1.8530   -3.0272    0.0000 O   0  0  0  0  0  0  0  0  0  0  0  0
    2.2638   -1.8997    0.0000 C   0  0  0  0  0  0  0  0  0  0  0  0
    1.2990   -0.7500    0.0000 C   0  0  0  0  0  0  0  0  0  0  0  0
    1.2990    0.7500    0.0000 C   0  0  0  0  0  0  0  0  0  0  0  0
    0.0000    1.5000    0.0000 C   0  0  0  0  0  0  0  0  0  0  0  0
   -1.2990    0.7500    0.0000 C   0  0  0  0  0  0  0  0  0  0  0  0
   -1.2990   -0.7500    0.0000 C   0  0  0  0  0  0  0  0  0  0  0  0
    0.0000   -1.5000    0.0000 C   0  0  0  0  0  0  0  0  0  0  0  0
   -2.5988    1.5004    0.0000 C   0  0  0  0  0  0  0  0  0  0  0  0
   -2.5996    2.7004    0.0000 F   0  0  0  0  0  0  0  0  0  0  0  0
   -3.6378    0.9001    0.0000 F   0  0  0  0  0  0  0  0  0  0  0  0
   -3.6383    2.0999    0.0000 F   0  0  0  0  0  0  0  0  0  0  0  0
    3.7419   -1.6400    0.0000 C   0  0  0  0  0  0  0  0  0  0  0  0
    4.7054   -2.7897    0.0000 C   0  0  0  0  0  0  0  0  0  0  0  0
    6.1828   -2.5302    0.0000 C   0  0  0  0  0  0  0  0  0  0  0  0
    6.6967   -1.1209    0.0000 C   0  0  0  0  0  0  0  0  0  0  0  0
    5.7332    0.0287    0.0000 N   0  0  0  0  0  0  0  0  0  0  0  0
    4.2559   -0.2308    0.0000 C   0  0  0  0  0  0  0  0  0  0  0  0
    0.7858   -2.1601    0.0000 C   0  0  0  0  0  0  0  0  0  0  0  0
    0.2725   -3.5695    0.0000 C   0  0  0  0  0  0  0  0  0  0  0  0
   -1.2047   -3.8298    0.0000 C   0  0  0  0  0  0  0  0  0  0  0  0
   -2.1687   -2.6805    0.0000 C   0  0  0  0  0  0  0  0  0  0  0  0
   -1.6555   -1.2711    0.0000 C   0  0  0  0  0  0  0  0  0  0  0  0
   -0.1782   -1.0108    0.0000 C   0  0  0  0  0  0  0  0  0  0  0  0
    0.2324    0.1167    0.0000 F   0  0  0  0  0  0  0  0  0  0  0  0
   -3.6468   -2.9409    0.0000 C   0  0  0  0  0  0  0  0  0  0  0  0
   -4.8286   -3.1491    0.0000 N   0  0  0  0  0  0  0  0  0  0  0  0
  1  2  1  0  0  0  0
  2  3  1  0  0  0  0
  3  4  2  0  0  0  0
  4  5  1  0  0  0  0
  5  6  2  0  0  0  0
  6  7  1  0  0  0  0
  7  8  2  0  0  0  0
  8  3  1  0  0  0  0
  6  9  1  0  0  0  0
  9 10  1  0  0  0  0
  9 11  1  0  0  0  0
  9 12  1  0  0  0  0
  2 13  1  0  0  0  0
 13 14  2  0  0  0  0
 14 15  1  0  0  0  0
 15 16  2  0  0  0  0
 16 17  1  0  0  0  0
 17 18  2  0  0  0  0
 18 13  1  0  0  0  0
  2 19  1  0  0  0  0
 19 20  2  0  0  0  0
 20 21  1  0  0  0  0
 21 22  2  0  0  0  0
 22 23  1  0  0  0  0
 23 24  2  0  0  0  0
 24 19  1  0  0  0  0
 24 25  1  0  0  0  0
 22 26  1  0  0  0  0
 26 27  3  0  0  0  0
M  END
>  <Other ID>
EPL-BS0800

>  <sub series>
triarylmethylenes

>  <Source>
Epichem

>  <% growth M.myc at 100 uM>
0.6082

>  <% growth M.myc at 25 uM>
-2.431

>  <M. Myc IC50>
0.58

>  <M. Myc IC90>
0.87

>  <MIC50>
4

$$$$
Chemistry 37
  StarDrop          2D                              

 25 27  0  0  0  0  0  0  0  0999 V2000
    2.3383   -1.3500    0.0000 Br  0  0  0  0  0  0  0  0  0  0  0  0
    1.2990   -0.7500    0.0000 C   0  0  0  0  0  0  0  0  0  0  0  0
    1.2990    0.7500    0.0000 C   0  0  0  0  0  0  0  0  0  0  0  0
    0.0000    1.5000    0.0000 C   0  0  0  0  0  0  0  0  0  0  0  0
   -1.2990    0.7500    0.0000 C   0  0  0  0  0  0  0  0  0  0  0  0
   -2.2638    1.8997    0.0000 C   0  0  0  0  0  0  0  0  0  0  0  0
   -1.7513    3.3103    0.0000 C   0  0  0  0  0  0  0  0  0  0  0  0
   -2.7163    4.4588    0.0000 C   0  0  0  0  0  0  0  0  0  0  0  0
   -2.2041    5.8687    0.0000 C   0  0  0  0  0  0  0  0  0  0  0  0
   -0.7271    6.1301    0.0000 C   0  0  0  0  0  0  0  0  0  0  0  0
   -0.2147    7.5407    0.0000 C   0  0  0  0  0  0  0  0  0  0  0  0
   -0.9860    8.4600    0.0000 F   0  0  0  0  0  0  0  0  0  0  0  0
    0.9670    7.7495    0.0000 F   0  0  0  0  0  0  0  0  0  0  0  0
    0.1956    8.6684    0.0000 F   0  0  0  0  0  0  0  0  0  0  0  0
    0.2378    4.9816    0.0000 C   0  0  0  0  0  0  0  0  0  0  0  0
   -0.2743    3.5717    0.0000 C   0  0  0  0  0  0  0  0  0  0  0  0
   -3.4455    1.6909    0.0000 O   0  0  0  0  0  0  0  0  0  0  0  0
   -2.7768    0.4894    0.0000 C   0  0  0  0  0  0  0  0  0  0  0  0
   -4.2540    0.2286    0.0000 C   0  0  0  0  0  0  0  0  0  0  0  0
   -4.7668   -1.1810    0.0000 N   0  0  0  0  0  0  0  0  0  0  0  0
   -3.8024   -2.3299    0.0000 C   0  0  0  0  0  0  0  0  0  0  0  0
   -2.3252   -2.0692    0.0000 C   0  0  0  0  0  0  0  0  0  0  0  0
   -1.8124   -0.6595    0.0000 C   0  0  0  0  0  0  0  0  0  0  0  0
   -1.2990   -0.7500    0.0000 C   0  0  0  0  0  0  0  0  0  0  0  0
    0.0000   -1.5000    0.0000 C   0  0  0  0  0  0  0  0  0  0  0  0
  1  2  1  0  0  0  0
  2  3  2  0  0  0  0
  3  4  1  0  0  0  0
  4  5  2  0  0  0  0
  5  6  1  0  0  0  0
  6  7  1  0  0  0  0
  7  8  2  0  0  0  0
  8  9  1  0  0  0  0
  9 10  2  0  0  0  0
 10 11  1  0  0  0  0
 11 12  1  0  0  0  0
 11 13  1  0  0  0  0
 11 14  1  0  0  0  0
 10 15  1  0  0  0  0
 15 16  2  0  0  0  0
 16  7  1  0  0  0  0
  6 17  1  0  0  0  0
  6 18  1  0  0  0  0
 18 19  2  0  0  0  0
 19 20  1  0  0  0  0
 20 21  2  0  0  0  0
 21 22  1  0  0  0  0
 22 23  2  0  0  0  0
 23 18  1  0  0  0  0
  5 24  1  0  0  0  0
 24 25  2  0  0  0  0
 25  2  1  0  0  0  0
M  END
>  <Other ID>
HPD3-4

>  <sub series>
triarylmethylenes

>  <Source>
Sydney

>  <% growth M.myc at 100 uM>
1.64

>  <% growth M.myc at 25 uM>


>  <M. Myc IC50>
10.25

>  <M. Myc IC90>
15.08

>  <MIC50>
16

$$$$
Chemistry 38
  StarDrop          2D                              

 26 28  0  0  0  0  0  0  0  0999 V2000
    1.8530   -3.0272    0.0000 O   0  0  0  0  0  0  0  0  0  0  0  0
    2.2638   -1.8997    0.0000 C   0  0  0  0  0  0  0  0  0  0  0  0
    1.2990   -0.7500    0.0000 C   0  0  0  0  0  0  0  0  0  0  0  0
    1.2990    0.7500    0.0000 C   0  0  0  0  0  0  0  0  0  0  0  0
    0.0000    1.5000    0.0000 N   0  0  0  0  0  0  0  0  0  0  0  0
   -1.2990    0.7500    0.0000 C   0  0  0  0  0  0  0  0  0  0  0  0
   -1.2990   -0.7500    0.0000 C   0  0  0  0  0  0  0  0  0  0  0  0
    0.0000   -1.5000    0.0000 C   0  0  0  0  0  0  0  0  0  0  0  0
    3.7419   -1.6400    0.0000 C   0  0  0  0  0  0  0  0  0  0  0  0
    4.7054   -2.7897    0.0000 C   0  0  0  0  0  0  0  0  0  0  0  0
    6.1828   -2.5302    0.0000 C   0  0  0  0  0  0  0  0  0  0  0  0
    6.6967   -1.1209    0.0000 C   0  0  0  0  0  0  0  0  0  0  0  0
    8.1749   -0.8613    0.0000 C   0  0  0  0  0  0  0  0  0  0  0  0
    8.9462   -1.7805    0.0000 F   0  0  0  0  0  0  0  0  0  0  0  0
    8.5857    0.2663    0.0000 F   0  0  0  0  0  0  0  0  0  0  0  0
    9.3567   -0.6531    0.0000 F   0  0  0  0  0  0  0  0  0  0  0  0
    5.7332    0.0287    0.0000 C   0  0  0  0  0  0  0  0  0  0  0  0
    4.2559   -0.2308    0.0000 C   0  0  0  0  0  0  0  0  0  0  0  0
    0.7858   -2.1601    0.0000 C   0  0  0  0  0  0  0  0  0  0  0  0
    0.2725   -3.5695    0.0000 C   0  0  0  0  0  0  0  0  0  0  0  0
   -1.2047   -3.8298    0.0000 C   0  0  0  0  0  0  0  0  0  0  0  0
   -2.1687   -2.6805    0.0000 C   0  0  0  0  0  0  0  0  0  0  0  0
   -3.6468   -2.9409    0.0000 C   0  0  0  0  0  0  0  0  0  0  0  0
   -4.8286   -3.1491    0.0000 N   0  0  0  0  0  0  0  0  0  0  0  0
   -1.6555   -1.2711    0.0000 C   0  0  0  0  0  0  0  0  0  0  0  0
   -0.1782   -1.0108    0.0000 C   0  0  0  0  0  0  0  0  0  0  0  0
  1  2  1  0  0  0  0
  2  3  1  0  0  0  0
  3  4  2  0  0  0  0
  4  5  1  0  0  0  0
  5  6  2  0  0  0  0
  6  7  1  0  0  0  0
  7  8  2  0  0  0  0
  8  3  1  0  0  0  0
  2  9  1  0  0  0  0
  9 10  2  0  0  0  0
 10 11  1  0  0  0  0
 11 12  2  0  0  0  0
 12 13  1  0  0  0  0
 13 14  1  0  0  0  0
 13 15  1  0  0  0  0
 13 16  1  0  0  0  0
 12 17  1  0  0  0  0
 17 18  2  0  0  0  0
 18  9  1  0  0  0  0
  2 19  1  0  0  0  0
 19 20  2  0  0  0  0
 20 21  1  0  0  0  0
 21 22  2  0  0  0  0
 22 23  1  0  0  0  0
 23 24  3  0  0  0  0
 22 25  1  0  0  0  0
 25 26  2  0  0  0  0
 26 19  1  0  0  0  0
M  END
>  <Other ID>
HPD8-1

>  <sub series>
triarylmethylenes

>  <Source>
Sydney

>  <% growth M.myc at 100 uM>
0.41

>  <% growth M.myc at 25 uM>


>  <M. Myc IC50>
9.14

>  <M. Myc IC90>
14.82

>  <MIC50>
16

$$$$
Chemistry 39
  StarDrop          2D                              

 26 28  0  0  0  0  0  0  0  0999 V2000
    2.3383   -1.3500    0.0000 Br  0  0  0  0  0  0  0  0  0  0  0  0
    1.2990   -0.7500    0.0000 C   0  0  0  0  0  0  0  0  0  0  0  0
    1.2990    0.7500    0.0000 C   0  0  0  0  0  0  0  0  0  0  0  0
    0.0000    1.5000    0.0000 C   0  0  0  0  0  0  0  0  0  0  0  0
   -1.2990    0.7500    0.0000 C   0  0  0  0  0  0  0  0  0  0  0  0
   -2.2638    1.8997    0.0000 C   0  0  0  0  0  0  0  0  0  0  0  0
   -1.7513    3.3103    0.0000 C   0  0  0  0  0  0  0  0  0  0  0  0
   -2.7163    4.4588    0.0000 C   0  0  0  0  0  0  0  0  0  0  0  0
   -2.2041    5.8687    0.0000 C   0  0  0  0  0  0  0  0  0  0  0  0
   -0.7271    6.1301    0.0000 C   0  0  0  0  0  0  0  0  0  0  0  0
   -0.2147    7.5407    0.0000 C   0  0  0  0  0  0  0  0  0  0  0  0
   -0.9860    8.4600    0.0000 F   0  0  0  0  0  0  0  0  0  0  0  0
    0.9670    7.7495    0.0000 F   0  0  0  0  0  0  0  0  0  0  0  0
    0.1956    8.6684    0.0000 F   0  0  0  0  0  0  0  0  0  0  0  0
    0.2378    4.9816    0.0000 C   0  0  0  0  0  0  0  0  0  0  0  0
   -0.2743    3.5717    0.0000 C   0  0  0  0  0  0  0  0  0  0  0  0
   -3.4455    1.6909    0.0000 O   0  0  0  0  0  0  0  0  0  0  0  0
   -2.7768    0.4894    0.0000 C   0  0  0  0  0  0  0  0  0  0  0  0
   -4.2540    0.2286    0.0000 C   0  0  0  0  0  0  0  0  0  0  0  0
   -4.7668   -1.1810    0.0000 N   0  0  0  0  0  0  0  0  0  0  0  0
   -3.8024   -2.3299    0.0000 C   0  0  0  0  0  0  0  0  0  0  0  0
   -2.3252   -2.0692    0.0000 C   0  0  0  0  0  0  0  0  0  0  0  0
   -1.8124   -0.6595    0.0000 C   0  0  0  0  0  0  0  0  0  0  0  0
   -1.2990   -0.7500    0.0000 C   0  0  0  0  0  0  0  0  0  0  0  0
   -2.3383   -1.3500    0.0000 F   0  0  0  0  0  0  0  0  0  0  0  0
    0.0000   -1.5000    0.0000 C   0  0  0  0  0  0  0  0  0  0  0  0
  1  2  1  0  0  0  0
  2  3  2  0  0  0  0
  3  4  1  0  0  0  0
  4  5  2  0  0  0  0
  5  6  1  0  0  0  0
  6  7  1  0  0  0  0
  7  8  2  0  0  0  0
  8  9  1  0  0  0  0
  9 10  2  0  0  0  0
 10 11  1  0  0  0  0
 11 12  1  0  0  0  0
 11 13  1  0  0  0  0
 11 14  1  0  0  0  0
 10 15  1  0  0  0  0
 15 16  2  0  0  0  0
 16  7  1  0  0  0  0
  6 17  1  0  0  0  0
  6 18  1  0  0  0  0
 18 19  2  0  0  0  0
 19 20  1  0  0  0  0
 20 21  2  0  0  0  0
 21 22  1  0  0  0  0
 22 23  2  0  0  0  0
 23 18  1  0  0  0  0
  5 24  1  0  0  0  0
 24 25  1  0  0  0  0
 24 26  2  0  0  0  0
 26  2  1  0  0  0  0
M  END
>  <Other ID>
HPD9-1

>  <sub series>
triarylmethylenes

>  <Source>
Sydney

>  <% growth M.myc at 100 uM>
2.01

>  <% growth M.myc at 25 uM>


>  <M. Myc IC50>
0.92

>  <M. Myc IC90>
1.67

>  <MIC50>
1

$$$$
Chemistry 40
  StarDrop          2D                              

 27 29  0  0  0  0  0  0  0  0999 V2000
    2.3383   -1.3500    0.0000 F   0  0  0  0  0  0  0  0  0  0  0  0
    1.2990   -0.7500    0.0000 C   0  0  0  0  0  0  0  0  0  0  0  0
    1.2990    0.7500    0.0000 C   0  0  0  0  0  0  0  0  0  0  0  0
    0.0000    1.5000    0.0000 C   0  0  0  0  0  0  0  0  0  0  0  0
    0.0000    3.0008    0.0000 C   0  0  0  0  0  0  0  0  0  0  0  0
    0.0000    4.2008    0.0000 N   0  0  0  0  0  0  0  0  0  0  0  0
   -1.2990    0.7500    0.0000 C   0  0  0  0  0  0  0  0  0  0  0  0
   -1.2990   -0.7500    0.0000 C   0  0  0  0  0  0  0  0  0  0  0  0
    0.0000   -1.5000    0.0000 C   0  0  0  0  0  0  0  0  0  0  0  0
   -0.5133   -2.9103    0.0000 C   0  0  0  0  0  0  0  0  0  0  0  0
   -1.9912   -3.1719    0.0000 C   0  0  0  0  0  0  0  0  0  0  0  0
   -2.5033   -4.5817    0.0000 C   0  0  0  0  0  0  0  0  0  0  0  0
   -3.9803   -4.8432    0.0000 C   0  0  0  0  0  0  0  0  0  0  0  0
   -4.9453   -3.6947    0.0000 C   0  0  0  0  0  0  0  0  0  0  0  0
   -6.4231   -3.9562    0.0000 C   0  0  0  0  0  0  0  0  0  0  0  0
   -6.8335   -5.0839    0.0000 F   0  0  0  0  0  0  0  0  0  0  0  0
   -7.1948   -3.0372    0.0000 F   0  0  0  0  0  0  0  0  0  0  0  0
   -7.6048   -4.1648    0.0000 F   0  0  0  0  0  0  0  0  0  0  0  0
   -4.4331   -2.2848    0.0000 C   0  0  0  0  0  0  0  0  0  0  0  0
   -2.9561   -2.0234    0.0000 C   0  0  0  0  0  0  0  0  0  0  0  0
    0.2583   -3.8293    0.0000 O   0  0  0  0  0  0  0  0  0  0  0  0
    0.9646   -2.6495    0.0000 C   0  0  0  0  0  0  0  0  0  0  0  0
    1.9290   -3.7984    0.0000 C   0  0  0  0  0  0  0  0  0  0  0  0
    3.4061   -3.5377    0.0000 N   0  0  0  0  0  0  0  0  0  0  0  0
    3.9189   -2.1281    0.0000 C   0  0  0  0  0  0  0  0  0  0  0  0
    2.9546   -0.9791    0.0000 C   0  0  0  0  0  0  0  0  0  0  0  0
    1.4774   -1.2399    0.0000 C   0  0  0  0  0  0  0  0  0  0  0  0
  1  2  1  0  0  0  0
  2  3  2  0  0  0  0
  3  4  1  0  0  0  0
  4  5  1  0  0  0  0
  5  6  3  0  0  0  0
  4  7  2  0  0  0  0
  7  8  1  0  0  0  0
  8  9  2  0  0  0  0
  9  2  1  0  0  0  0
  9 10  1  0  0  0  0
 10 11  1  0  0  0  0
 11 12  2  0  0  0  0
 12 13  1  0  0  0  0
 13 14  2  0  0  0  0
 14 15  1  0  0  0  0
 15 16  1  0  0  0  0
 15 17  1  0  0  0  0
 15 18  1  0  0  0  0
 14 19  1  0  0  0  0
 19 20  2  0  0  0  0
 20 11  1  0  0  0  0
 10 21  1  0  0  0  0
 10 22  1  0  0  0  0
 22 23  2  0  0  0  0
 23 24  1  0  0  0  0
 24 25  2  0  0  0  0
 25 26  1  0  0  0  0
 26 27  2  0  0  0  0
 27 22  1  0  0  0  0
M  END
>  <Other ID>
HPD10_1, EPL-BS0800

>  <sub series>
triarylmethylenes

>  <Source>
Sydney

>  <% growth M.myc at 100 uM>
1.09

>  <% growth M.myc at 25 uM>


>  <M. Myc IC50>
0.85

>  <M. Myc IC90>
1.65

>  <MIC50>
1

$$$$
Chemistry 43
  StarDrop          2D                              

 22 24  0  0  0  0  0  0  0  0999 V2000
    1.8530   -3.0272    0.0000 O   0  0  0  0  0  0  0  0  0  0  0  0
    2.2638   -1.8997    0.0000 C   0  0  0  0  0  0  0  0  0  0  0  0
    1.2990   -0.7500    0.0000 C   0  0  0  0  0  0  0  0  0  0  0  0
    1.2990    0.7500    0.0000 C   0  0  0  0  0  0  0  0  0  0  0  0
    0.0000    1.5000    0.0000 C   0  0  0  0  0  0  0  0  0  0  0  0
   -1.2990    0.7500    0.0000 C   0  0  0  0  0  0  0  0  0  0  0  0
   -2.3383    1.3500    0.0000 Cl  0  0  0  0  0  0  0  0  0  0  0  0
   -1.2990   -0.7500    0.0000 C   0  0  0  0  0  0  0  0  0  0  0  0
    0.0000   -1.5000    0.0000 C   0  0  0  0  0  0  0  0  0  0  0  0
    3.7419   -1.6400    0.0000 C   0  0  0  0  0  0  0  0  0  0  0  0
    4.7054   -2.7897    0.0000 C   0  0  0  0  0  0  0  0  0  0  0  0
    6.1828   -2.5302    0.0000 C   0  0  0  0  0  0  0  0  0  0  0  0
    6.6967   -1.1209    0.0000 C   0  0  0  0  0  0  0  0  0  0  0  0
    5.7332    0.0287    0.0000 C   0  0  0  0  0  0  0  0  0  0  0  0
    4.2559   -0.2308    0.0000 C   0  0  0  0  0  0  0  0  0  0  0  0
    3.4851    0.6889    0.0000 Br  0  0  0  0  0  0  0  0  0  0  0  0
    0.7858   -2.1601    0.0000 C   0  0  0  0  0  0  0  0  0  0  0  0
    0.2725   -3.5695    0.0000 C   0  0  0  0  0  0  0  0  0  0  0  0
   -1.2047   -3.8298    0.0000 N   0  0  0  0  0  0  0  0  0  0  0  0
   -2.1687   -2.6805    0.0000 C   0  0  0  0  0  0  0  0  0  0  0  0
   -1.6555   -1.2711    0.0000 C   0  0  0  0  0  0  0  0  0  0  0  0
   -0.1782   -1.0108    0.0000 C   0  0  0  0  0  0  0  0  0  0  0  0
  1  2  1  0  0  0  0
  2  3  1  0  0  0  0
  3  4  2  0  0  0  0
  4  5  1  0  0  0  0
  5  6  2  0  0  0  0
  6  7  1  0  0  0  0
  6  8  1  0  0  0  0
  8  9  2  0  0  0  0
  9  3  1  0  0  0  0
  2 10  1  0  0  0  0
 10 11  2  0  0  0  0
 11 12  1  0  0  0  0
 12 13  2  0  0  0  0
 13 14  1  0  0  0  0
 14 15  2  0  0  0  0
 15 10  1  0  0  0  0
 15 16  1  0  0  0  0
  2 17  1  0  0  0  0
 17 18  2  0  0  0  0
 18 19  1  0  0  0  0
 19 20  2  0  0  0  0
 20 21  1  0  0  0  0
 21 22  2  0  0  0  0
 22 17  1  0  0  0  0
M  END
>  <Other ID>
HPD17_2F3

>  <sub series>
triarylmethylenes

>  <Source>
Sydney

>  <% growth M.myc at 100 uM>


>  <% growth M.myc at 25 uM>


>  <M. Myc IC50>


>  <M. Myc IC90>


>  <MIC50>


$$$$
Chemistry 44
  StarDrop          2D                              

 23 25  0  0  0  0  0  0  0  0999 V2000
    2.3383   -1.3500    0.0000 Cl  0  0  0  0  0  0  0  0  0  0  0  0
    1.2990   -0.7500    0.0000 C   0  0  0  0  0  0  0  0  0  0  0  0
    1.2990    0.7500    0.0000 C   0  0  0  0  0  0  0  0  0  0  0  0
    0.0000    1.5000    0.0000 C   0  0  0  0  0  0  0  0  0  0  0  0
    0.0000   -1.5000    0.0000 C   0  0  0  0  0  0  0  0  0  0  0  0
   -1.2990   -0.7500    0.0000 C   0  0  0  0  0  0  0  0  0  0  0  0
   -1.2990    0.7500    0.0000 C   0  0  0  0  0  0  0  0  0  0  0  0
   -2.2638    1.8997    0.0000 C   0  0  0  0  0  0  0  0  0  0  0  0
   -3.7419    1.6400    0.0000 C   0  0  0  0  0  0  0  0  0  0  0  0
   -4.2559    0.2308    0.0000 C   0  0  0  0  0  0  0  0  0  0  0  0
   -5.7332   -0.0288    0.0000 C   0  0  0  0  0  0  0  0  0  0  0  0
   -6.6967    1.1209    0.0000 C   0  0  0  0  0  0  0  0  0  0  0  0
   -6.1828    2.5301    0.0000 C   0  0  0  0  0  0  0  0  0  0  0  0
   -4.7054    2.7897    0.0000 C   0  0  0  0  0  0  0  0  0  0  0  0
   -4.2943    3.9171    0.0000 Br  0  0  0  0  0  0  0  0  0  0  0  0
   -1.7500    3.3098    0.0000 O   0  0  0  0  0  0  0  0  0  0  0  0
   -2.5205    4.2298    0.0000 C   0  0  0  0  0  0  0  0  0  0  0  0
   -0.7858    2.1601    0.0000 C   0  0  0  0  0  0  0  0  0  0  0  0
    0.1782    1.0108    0.0000 C   0  0  0  0  0  0  0  0  0  0  0  0
    1.6555    1.2711    0.0000 N   0  0  0  0  0  0  0  0  0  0  0  0
    2.1687    2.6806    0.0000 C   0  0  0  0  0  0  0  0  0  0  0  0
    1.2047    3.8298    0.0000 C   0  0  0  0  0  0  0  0  0  0  0  0
   -0.2725    3.5695    0.0000 C   0  0  0  0  0  0  0  0  0  0  0  0
  1  2  1  0  0  0  0
  2  3  1  0  0  0  0
  3  4  2  0  0  0  0
  2  5  2  0  0  0  0
  5  6  1  0  0  0  0
  6  7  2  0  0  0  0
  7  4  1  0  0  0  0
  7  8  1  0  0  0  0
  8  9  1  0  0  0  0
  9 10  2  0  0  0  0
 10 11  1  0  0  0  0
 11 12  2  0  0  0  0
 12 13  1  0  0  0  0
 13 14  2  0  0  0  0
 14  9  1  0  0  0  0
 14 15  1  0  0  0  0
  8 16  1  0  0  0  0
 16 17  1  0  0  0  0
  8 18  1  0  0  0  0
 18 19  2  0  0  0  0
 19 20  1  0  0  0  0
 20 21  2  0  0  0  0
 21 22  1  0  0  0  0
 22 23  2  0  0  0  0
 23 18  1  0  0  0  0
M  END
>  <Other ID>
HPD20_1

>  <sub series>
triarylmethylenes

>  <Source>
Sydney

>  <% growth M.myc at 100 uM>


>  <% growth M.myc at 25 uM>


>  <M. Myc IC50>


>  <M. Myc IC90>


>  <MIC50>


$$$$
Chemistry 46
  StarDrop          2D                              

 21 23  0  0  0  0  0  0  0  0999 V2000
    2.2638   -1.8997    0.0000 C   0  0  0  0  0  0  0  0  0  0  0  0
    1.2990   -0.7500    0.0000 C   0  0  0  0  0  0  0  0  0  0  0  0
    1.2990    0.7500    0.0000 C   0  0  0  0  0  0  0  0  0  0  0  0
    0.0000    1.5000    0.0000 C   0  0  0  0  0  0  0  0  0  0  0  0
   -1.2990    0.7500    0.0000 C   0  0  0  0  0  0  0  0  0  0  0  0
   -2.3383    1.3500    0.0000 Cl  0  0  0  0  0  0  0  0  0  0  0  0
   -1.2990   -0.7500    0.0000 C   0  0  0  0  0  0  0  0  0  0  0  0
    0.0000   -1.5000    0.0000 C   0  0  0  0  0  0  0  0  0  0  0  0
    3.7419   -1.6400    0.0000 C   0  0  0  0  0  0  0  0  0  0  0  0
    4.7054   -2.7897    0.0000 C   0  0  0  0  0  0  0  0  0  0  0  0
    6.1828   -2.5302    0.0000 C   0  0  0  0  0  0  0  0  0  0  0  0
    6.6967   -1.1209    0.0000 C   0  0  0  0  0  0  0  0  0  0  0  0
    5.7332    0.0287    0.0000 C   0  0  0  0  0  0  0  0  0  0  0  0
    4.2559   -0.2308    0.0000 C   0  0  0  0  0  0  0  0  0  0  0  0
    3.4851    0.6889    0.0000 Br  0  0  0  0  0  0  0  0  0  0  0  0
    0.7858   -2.1601    0.0000 C   0  0  0  0  0  0  0  0  0  0  0  0
    0.2725   -3.5695    0.0000 C   0  0  0  0  0  0  0  0  0  0  0  0
   -1.2047   -3.8298    0.0000 N   0  0  0  0  0  0  0  0  0  0  0  0
   -2.1687   -2.6805    0.0000 C   0  0  0  0  0  0  0  0  0  0  0  0
   -1.6555   -1.2711    0.0000 C   0  0  0  0  0  0  0  0  0  0  0  0
   -0.1782   -1.0108    0.0000 C   0  0  0  0  0  0  0  0  0  0  0  0
  1  2  1  0  0  0  0
  2  3  2  0  0  0  0
  3  4  1  0  0  0  0
  4  5  2  0  0  0  0
  5  6  1  0  0  0  0
  5  7  1  0  0  0  0
  7  8  2  0  0  0  0
  8  2  1  0  0  0  0
  1  9  1  0  0  0  0
  9 10  2  0  0  0  0
 10 11  1  0  0  0  0
 11 12  2  0  0  0  0
 12 13  1  0  0  0  0
 13 14  2  0  0  0  0
 14  9  1  0  0  0  0
 14 15  1  0  0  0  0
  1 16  1  0  0  0  0
 16 17  2  0  0  0  0
 17 18  1  0  0  0  0
 18 19  2  0  0  0  0
 19 20  1  0  0  0  0
 20 21  2  0  0  0  0
 21 16  1  0  0  0  0
M  END
>  <Other ID>
HPD26_1

>  <sub series>
triarylmethylenes

>  <Source>
Sydney

>  <% growth M.myc at 100 uM>


>  <% growth M.myc at 25 uM>


>  <M. Myc IC50>


>  <M. Myc IC90>


>  <MIC50>


$$$$
Chemistry 63
  StarDrop          2D                              

 22 24  0  0  0  0  0  0  0  0999 V2000
    1.8530   -3.0272    0.0000 O   0  0  0  0  0  0  0  0  0  0  0  0
    2.2638   -1.8997    0.0000 C   0  0  0  0  0  0  0  0  0  0  0  0
    1.2990   -0.7500    0.0000 C   0  0  0  0  0  0  0  0  0  0  0  0
    1.2990    0.7500    0.0000 C   0  0  0  0  0  0  0  0  0  0  0  0
    0.0000    1.5000    0.0000 C   0  0  0  0  0  0  0  0  0  0  0  0
   -1.2990    0.7500    0.0000 C   0  0  0  0  0  0  0  0  0  0  0  0
   -2.3383    1.3500    0.0000 Cl  0  0  0  0  0  0  0  0  0  0  0  0
   -1.2990   -0.7500    0.0000 C   0  0  0  0  0  0  0  0  0  0  0  0
    0.0000   -1.5000    0.0000 C   0  0  0  0  0  0  0  0  0  0  0  0
    3.7419   -1.6400    0.0000 C   0  0  0  0  0  0  0  0  0  0  0  0
    4.7054   -2.7897    0.0000 C   0  0  0  0  0  0  0  0  0  0  0  0
    6.1828   -2.5302    0.0000 C   0  0  0  0  0  0  0  0  0  0  0  0
    6.6967   -1.1209    0.0000 C   0  0  0  0  0  0  0  0  0  0  0  0
    5.7332    0.0287    0.0000 N   0  0  0  0  0  0  0  0  0  0  0  0
    4.2559   -0.2308    0.0000 C   0  0  0  0  0  0  0  0  0  0  0  0
    0.7858   -2.1601    0.0000 C   0  0  0  0  0  0  0  0  0  0  0  0
    0.2725   -3.5695    0.0000 C   0  0  0  0  0  0  0  0  0  0  0  0
   -1.2047   -3.8298    0.0000 C   0  0  0  0  0  0  0  0  0  0  0  0
   -2.1687   -2.6805    0.0000 C   0  0  0  0  0  0  0  0  0  0  0  0
   -1.6555   -1.2711    0.0000 C   0  0  0  0  0  0  0  0  0  0  0  0
   -0.1782   -1.0108    0.0000 C   0  0  0  0  0  0  0  0  0  0  0  0
    0.2324    0.1167    0.0000 Cl  0  0  0  0  0  0  0  0  0  0  0  0
  1  2  1  0  0  0  0
  2  3  1  0  0  0  0
  3  4  2  0  0  0  0
  4  5  1  0  0  0  0
  5  6  2  0  0  0  0
  6  7  1  0  0  0  0
  6  8  1  0  0  0  0
  8  9  2  0  0  0  0
  9  3  1  0  0  0  0
  2 10  1  0  0  0  0
 10 11  2  0  0  0  0
 11 12  1  0  0  0  0
 12 13  2  0  0  0  0
 13 14  1  0  0  0  0
 14 15  2  0  0  0  0
 15 10  1  0  0  0  0
  2 16  1  0  0  0  0
 16 17  2  0  0  0  0
 17 18  1  0  0  0  0
 18 19  2  0  0  0  0
 19 20  1  0  0  0  0
 20 21  2  0  0  0  0
 21 16  1  0  0  0  0
 21 22  1  0  0  0  0
M  END
>  <Other ID>
EPL-BS0038

>  <sub series>
triarylmethylenes

>  <Source>
Epichem

>  <% growth M.myc at 100 uM>
-3.303

>  <% growth M.myc at 25 uM>
-3.139

>  <M. Myc IC50>
0.15

>  <M. Myc IC90>
0.21

>  <MIC50>


$$$$
Chemistry 72
  StarDrop          2D                              

 24 26  0  0  0  0  0  0  0  0999 V2000
    3.6375   -0.9049    0.0000 N   0  0  0  0  0  0  0  0  0  0  0  0
    2.5973   -1.5031    0.0000 C   0  0  0  0  0  0  0  0  0  0  0  0
    2.5956   -2.7031    0.0000 O   0  0  0  0  0  0  0  0  0  0  0  0
    1.2990   -0.7500    0.0000 C   0  0  0  0  0  0  0  0  0  0  0  0
    1.2990    0.7500    0.0000 C   0  0  0  0  0  0  0  0  0  0  0  0
    0.0000    1.5000    0.0000 C   0  0  0  0  0  0  0  0  0  0  0  0
   -1.2990    0.7500    0.0000 C   0  0  0  0  0  0  0  0  0  0  0  0
   -1.2990   -0.7500    0.0000 C   0  0  0  0  0  0  0  0  0  0  0  0
    0.0000   -1.5000    0.0000 C   0  0  0  0  0  0  0  0  0  0  0  0
   -2.7771   -1.0106    0.0000 C   0  0  0  0  0  0  0  0  0  0  0  0
   -3.1871   -2.1384    0.0000 O   0  0  0  0  0  0  0  0  0  0  0  0
   -3.7425    0.1385    0.0000 C   0  0  0  0  0  0  0  0  0  0  0  0
   -5.2196   -0.1230    0.0000 C   0  0  0  0  0  0  0  0  0  0  0  0
   -6.1845    1.0255    0.0000 C   0  0  0  0  0  0  0  0  0  0  0  0
   -5.6723    2.4354    0.0000 C   0  0  0  0  0  0  0  0  0  0  0  0
   -6.4443    3.3541    0.0000 Cl  0  0  0  0  0  0  0  0  0  0  0  0
   -4.1953    2.6968    0.0000 C   0  0  0  0  0  0  0  0  0  0  0  0
   -3.2304    1.5483    0.0000 C   0  0  0  0  0  0  0  0  0  0  0  0
   -1.8122   -2.1601    0.0000 C   0  0  0  0  0  0  0  0  0  0  0  0
   -2.3250   -3.5697    0.0000 C   0  0  0  0  0  0  0  0  0  0  0  0
   -1.3606   -4.7186    0.0000 C   0  0  0  0  0  0  0  0  0  0  0  0
    0.1165   -4.4579    0.0000 C   0  0  0  0  0  0  0  0  0  0  0  0
    0.6293   -3.0483    0.0000 N   0  0  0  0  0  0  0  0  0  0  0  0
   -0.3350   -1.8994    0.0000 C   0  0  0  0  0  0  0  0  0  0  0  0
  1  2  1  0  0  0  0
  2  3  2  0  0  0  0
  2  4  1  0  0  0  0
  4  5  2  0  0  0  0
  5  6  1  0  0  0  0
  6  7  2  0  0  0  0
  7  8  1  0  0  0  0
  8  9  2  0  0  0  0
  9  4  1  0  0  0  0
  8 10  1  0  0  0  0
 10 11  1  0  0  0  0
 10 12  1  0  0  0  0
 12 13  2  0  0  0  0
 13 14  1  0  0  0  0
 14 15  2  0  0  0  0
 15 16  1  0  0  0  0
 15 17  1  0  0  0  0
 17 18  2  0  0  0  0
 18 12  1  0  0  0  0
 10 19  1  0  0  0  0
 19 20  2  0  0  0  0
 20 21  1  0  0  0  0
 21 22  2  0  0  0  0
 22 23  1  0  0  0  0
 23 24  2  0  0  0  0
 24 19  1  0  0  0  0
M  END
>  <Other ID>
EPL-BS207

>  <sub series>
triarylmethylenes

>  <Source>
Epichem

>  <% growth M.myc at 100 uM>
90.43

>  <% growth M.myc at 25 uM>
104.6

>  <M. Myc IC50>


>  <M. Myc IC90>


>  <MIC50>


$$$$
Chemistry 73
  StarDrop          2D                              

 25 27  0  0  0  0  0  0  0  0999 V2000
    1.8530   -3.0272    0.0000 O   0  0  0  0  0  0  0  0  0  0  0  0
    2.2638   -1.8997    0.0000 C   0  0  0  0  0  0  0  0  0  0  0  0
    1.2990   -0.7500    0.0000 C   0  0  0  0  0  0  0  0  0  0  0  0
    1.2990    0.7500    0.0000 C   0  0  0  0  0  0  0  0  0  0  0  0
    0.0000    1.5000    0.0000 C   0  0  0  0  0  0  0  0  0  0  0  0
   -1.2990    0.7500    0.0000 C   0  0  0  0  0  0  0  0  0  0  0  0
   -1.2990   -0.7500    0.0000 C   0  0  0  0  0  0  0  0  0  0  0  0
    0.0000   -1.5000    0.0000 C   0  0  0  0  0  0  0  0  0  0  0  0
   -2.5988    1.5004    0.0000 C   0  0  0  0  0  0  0  0  0  0  0  0
   -2.5996    2.7004    0.0000 F   0  0  0  0  0  0  0  0  0  0  0  0
   -3.6378    0.9001    0.0000 F   0  0  0  0  0  0  0  0  0  0  0  0
   -3.6383    2.0999    0.0000 F   0  0  0  0  0  0  0  0  0  0  0  0
    3.7419   -1.6400    0.0000 C   0  0  0  0  0  0  0  0  0  0  0  0
    4.7054   -2.7897    0.0000 C   0  0  0  0  0  0  0  0  0  0  0  0
    6.1828   -2.5302    0.0000 C   0  0  0  0  0  0  0  0  0  0  0  0
    6.6967   -1.1209    0.0000 C   0  0  0  0  0  0  0  0  0  0  0  0
    5.7332    0.0287    0.0000 N   0  0  0  0  0  0  0  0  0  0  0  0
    4.2559   -0.2308    0.0000 C   0  0  0  0  0  0  0  0  0  0  0  0
    0.7858   -2.1601    0.0000 C   0  0  0  0  0  0  0  0  0  0  0  0
    0.2725   -3.5695    0.0000 C   0  0  0  0  0  0  0  0  0  0  0  0
   -1.2047   -3.8298    0.0000 C   0  0  0  0  0  0  0  0  0  0  0  0
   -2.1687   -2.6805    0.0000 C   0  0  0  0  0  0  0  0  0  0  0  0
   -1.6555   -1.2711    0.0000 C   0  0  0  0  0  0  0  0  0  0  0  0
   -0.1782   -1.0108    0.0000 C   0  0  0  0  0  0  0  0  0  0  0  0
    0.2324    0.1167    0.0000 F   0  0  0  0  0  0  0  0  0  0  0  0
  1  2  1  0  0  0  0
  2  3  1  0  0  0  0
  3  4  2  0  0  0  0
  4  5  1  0  0  0  0
  5  6  2  0  0  0  0
  6  7  1  0  0  0  0
  7  8  2  0  0  0  0
  8  3  1  0  0  0  0
  6  9  1  0  0  0  0
  9 10  1  0  0  0  0
  9 11  1  0  0  0  0
  9 12  1  0  0  0  0
  2 13  1  0  0  0  0
 13 14  2  0  0  0  0
 14 15  1  0  0  0  0
 15 16  2  0  0  0  0
 16 17  1  0  0  0  0
 17 18  2  0  0  0  0
 18 13  1  0  0  0  0
  2 19  1  0  0  0  0
 19 20  2  0  0  0  0
 20 21  1  0  0  0  0
 21 22  2  0  0  0  0
 22 23  1  0  0  0  0
 23 24  2  0  0  0  0
 24 19  1  0  0  0  0
 24 25  1  0  0  0  0
M  END
>  <Other ID>
EPL-BS0240

>  <sub series>
triarylmethylenes

>  <Source>
Epichem

>  <% growth M.myc at 100 uM>
-3.687

>  <% growth M.myc at 25 uM>
-4.77

>  <M. Myc IC50>
1.21

>  <M. Myc IC90>
2.6

>  <MIC50>


$$$$
Chemistry 75
  StarDrop          2D                              

 23 25  0  0  0  0  0  0  0  0999 V2000
    1.8530   -3.0272    0.0000 O   0  0  0  0  0  0  0  0  0  0  0  0
    2.2638   -1.8997    0.0000 C   0  0  0  0  0  0  0  0  0  0  0  0
    1.2990   -0.7500    0.0000 C   0  0  0  0  0  0  0  0  0  0  0  0
    1.2990    0.7500    0.0000 C   0  0  0  0  0  0  0  0  0  0  0  0
    0.0000    1.5000    0.0000 C   0  0  0  0  0  0  0  0  0  0  0  0
   -1.2990    0.7500    0.0000 C   0  0  0  0  0  0  0  0  0  0  0  0
   -2.3383    1.3500    0.0000 Cl  0  0  0  0  0  0  0  0  0  0  0  0
   -1.2990   -0.7500    0.0000 C   0  0  0  0  0  0  0  0  0  0  0  0
    0.0000   -1.5000    0.0000 C   0  0  0  0  0  0  0  0  0  0  0  0
    3.7419   -1.6400    0.0000 C   0  0  0  0  0  0  0  0  0  0  0  0
    4.7054   -2.7897    0.0000 C   0  0  0  0  0  0  0  0  0  0  0  0
    6.1828   -2.5302    0.0000 C   0  0  0  0  0  0  0  0  0  0  0  0
    6.6967   -1.1209    0.0000 C   0  0  0  0  0  0  0  0  0  0  0  0
    5.7332    0.0287    0.0000 C   0  0  0  0  0  0  0  0  0  0  0  0
    4.2559   -0.2308    0.0000 C   0  0  0  0  0  0  0  0  0  0  0  0
    8.1749   -0.8613    0.0000 C   0  0  0  0  0  0  0  0  0  0  0  0
    9.3568   -0.6536    0.0000 N   0  0  0  0  0  0  0  0  0  0  0  0
    0.7858   -2.1601    0.0000 C   0  0  0  0  0  0  0  0  0  0  0  0
    0.2725   -3.5695    0.0000 C   0  0  0  0  0  0  0  0  0  0  0  0
   -1.2047   -3.8298    0.0000 C   0  0  0  0  0  0  0  0  0  0  0  0
   -2.1687   -2.6805    0.0000 C   0  0  0  0  0  0  0  0  0  0  0  0
   -1.6555   -1.2711    0.0000 N   0  0  0  0  0  0  0  0  0  0  0  0
   -0.1782   -1.0108    0.0000 C   0  0  0  0  0  0  0  0  0  0  0  0
  1  2  1  0  0  0  0
  2  3  1  0  0  0  0
  3  4  2  0  0  0  0
  4  5  1  0  0  0  0
  5  6  2  0  0  0  0
  6  7  1  0  0  0  0
  6  8  1  0  0  0  0
  8  9  2  0  0  0  0
  9  3  1  0  0  0  0
  2 10  1  0  0  0  0
 10 11  2  0  0  0  0
 11 12  1  0  0  0  0
 12 13  2  0  0  0  0
 13 14  1  0  0  0  0
 14 15  2  0  0  0  0
 15 10  1  0  0  0  0
 13 16  1  0  0  0  0
 16 17  3  0  0  0  0
  2 18  1  0  0  0  0
 18 19  2  0  0  0  0
 19 20  1  0  0  0  0
 20 21  2  0  0  0  0
 21 22  1  0  0  0  0
 22 23  2  0  0  0  0
 23 18  1  0  0  0  0
M  END
>  <Other ID>
EPL-BS0271

>  <sub series>
triarylmethylenes

>  <Source>
Epichem

>  <% growth M.myc at 100 uM>
-6.344

>  <% growth M.myc at 25 uM>
4.133

>  <M. Myc IC50>
13.19

>  <M. Myc IC90>
>16

>  <MIC50>


$$$$
Chemistry 100
  StarDrop          2D                              

 25 27  0  0  0  0  0  0  0  0999 V2000
    3.6375   -0.9049    0.0000 N   0  0  0  0  0  0  0  0  0  0  0  0
    2.5973   -1.5031    0.0000 C   0  0  0  0  0  0  0  0  0  0  0  0
    2.5956   -2.7031    0.0000 O   0  0  0  0  0  0  0  0  0  0  0  0
    1.2990   -0.7500    0.0000 C   0  0  0  0  0  0  0  0  0  0  0  0
    1.2990    0.7500    0.0000 C   0  0  0  0  0  0  0  0  0  0  0  0
    0.0000    1.5000    0.0000 C   0  0  0  0  0  0  0  0  0  0  0  0
   -1.2990    0.7500    0.0000 C   0  0  0  0  0  0  0  0  0  0  0  0
   -1.2990   -0.7500    0.0000 C   0  0  0  0  0  0  0  0  0  0  0  0
    0.0000   -1.5000    0.0000 C   0  0  0  0  0  0  0  0  0  0  0  0
   -2.7771   -1.0106    0.0000 C   0  0  0  0  0  0  0  0  0  0  0  0
   -3.1871   -2.1384    0.0000 O   0  0  0  0  0  0  0  0  0  0  0  0
   -3.7425    0.1385    0.0000 C   0  0  0  0  0  0  0  0  0  0  0  0
   -5.2196   -0.1230    0.0000 C   0  0  0  0  0  0  0  0  0  0  0  0
   -6.1845    1.0255    0.0000 C   0  0  0  0  0  0  0  0  0  0  0  0
   -5.6723    2.4354    0.0000 C   0  0  0  0  0  0  0  0  0  0  0  0
   -4.1953    2.6968    0.0000 N   0  0  0  0  0  0  0  0  0  0  0  0
   -3.2304    1.5483    0.0000 C   0  0  0  0  0  0  0  0  0  0  0  0
   -1.8122   -2.1601    0.0000 C   0  0  0  0  0  0  0  0  0  0  0  0
   -2.3250   -3.5697    0.0000 C   0  0  0  0  0  0  0  0  0  0  0  0
   -1.3606   -4.7186    0.0000 C   0  0  0  0  0  0  0  0  0  0  0  0
    0.1165   -4.4579    0.0000 C   0  0  0  0  0  0  0  0  0  0  0  0
    0.8880   -5.3771    0.0000 Cl  0  0  0  0  0  0  0  0  0  0  0  0
    0.6293   -3.0483    0.0000 C   0  0  0  0  0  0  0  0  0  0  0  0
   -0.3350   -1.8994    0.0000 C   0  0  0  0  0  0  0  0  0  0  0  0
    0.0752   -0.7717    0.0000 F   0  0  0  0  0  0  0  0  0  0  0  0
  1  2  1  0  0  0  0
  2  3  2  0  0  0  0
  2  4  1  0  0  0  0
  4  5  2  0  0  0  0
  5  6  1  0  0  0  0
  6  7  2  0  0  0  0
  7  8  1  0  0  0  0
  8  9  2  0  0  0  0
  9  4  1  0  0  0  0
  8 10  1  0  0  0  0
 10 11  1  0  0  0  0
 10 12  1  0  0  0  0
 12 13  2  0  0  0  0
 13 14  1  0  0  0  0
 14 15  2  0  0  0  0
 15 16  1  0  0  0  0
 16 17  2  0  0  0  0
 17 12  1  0  0  0  0
 10 18  1  0  0  0  0
 18 19  2  0  0  0  0
 19 20  1  0  0  0  0
 20 21  2  0  0  0  0
 21 22  1  0  0  0  0
 21 23  1  0  0  0  0
 23 24  2  0  0  0  0
 24 18  1  0  0  0  0
 24 25  1  0  0  0  0
M  END
>  <Other ID>
EPL-BS0613

>  <sub series>
triarylmethylenes

>  <Source>
Epichem

>  <% growth M.myc at 100 uM>
-3.559

>  <% growth M.myc at 25 uM>
84.84

>  <M. Myc IC50>


>  <M. Myc IC90>


>  <MIC50>


$$$$
Chemistry 15
  StarDrop          2D                              

 27 29  0  0  0  0  0  0  0  0999 V2000
    3.6331   -3.6060    0.0000 C   0  0  0  0  0  0  0  0  0  0  0  0
    2.5951   -3.0039    0.0000 C   0  0  0  0  0  0  0  0  0  0  0  0
    1.5548   -3.6021    0.0000 C   0  0  0  0  0  0  0  0  0  0  0  0
    2.5973   -1.5031    0.0000 O   0  0  0  0  0  0  0  0  0  0  0  0
    1.2990   -0.7500    0.0000 C   0  0  0  0  0  0  0  0  0  0  0  0
    1.2990    0.7500    0.0000 C   0  0  0  0  0  0  0  0  0  0  0  0
    0.0000    1.5000    0.0000 C   0  0  0  0  0  0  0  0  0  0  0  0
   -1.2990    0.7500    0.0000 C   0  0  0  0  0  0  0  0  0  0  0  0
   -1.2990   -0.7500    0.0000 C   0  0  0  0  0  0  0  0  0  0  0  0
    0.0000   -1.5000    0.0000 C   0  0  0  0  0  0  0  0  0  0  0  0
   -2.6003    1.4977    0.0000 C   0  0  0  0  0  0  0  0  0  0  0  0
   -3.8990    0.7455    0.0000 N   0  0  0  0  0  0  0  0  0  0  0  0
   -5.2003    1.4932    0.0000 C   0  0  0  0  0  0  0  0  0  0  0  0
   -5.2024    2.6932    0.0000 O   0  0  0  0  0  0  0  0  0  0  0  0
   -6.4990    0.7409    0.0000 C   0  0  0  0  0  0  0  0  0  0  0  0
   -7.8007    1.4864    0.0000 C   0  0  0  0  0  0  0  0  0  0  0  0
   -9.0971    0.7319    0.0000 C   0  0  0  0  0  0  0  0  0  0  0  0
   -9.0919   -0.7681    0.0000 C   0  0  0  0  0  0  0  0  0  0  0  0
  -10.1291   -1.3717    0.0000 Cl  0  0  0  0  0  0  0  0  0  0  0  0
   -7.7903   -1.5136    0.0000 C   0  0  0  0  0  0  0  0  0  0  0  0
   -6.4939   -0.7591    0.0000 C   0  0  0  0  0  0  0  0  0  0  0  0
   -2.6030    2.9985    0.0000 C   0  0  0  0  0  0  0  0  0  0  0  0
   -3.9023    3.7481    0.0000 C   0  0  0  0  0  0  0  0  0  0  0  0
   -3.9029    5.2481    0.0000 C   0  0  0  0  0  0  0  0  0  0  0  0
   -2.6041    5.9986    0.0000 C   0  0  0  0  0  0  0  0  0  0  0  0
   -1.3048    5.2491    0.0000 N   0  0  0  0  0  0  0  0  0  0  0  0
   -1.3042    3.7491    0.0000 C   0  0  0  0  0  0  0  0  0  0  0  0
  1  2  1  0  0  0  0
  2  3  1  0  0  0  0
  2  4  1  0  0  0  0
  4  5  1  0  0  0  0
  5  6  2  0  0  0  0
  6  7  1  0  0  0  0
  7  8  2  0  0  0  0
  8  9  1  0  0  0  0
  9 10  2  0  0  0  0
 10  5  1  0  0  0  0
  8 11  1  0  0  0  0
 11 12  1  0  0  0  0
 12 13  1  0  0  0  0
 13 14  2  0  0  0  0
 13 15  1  0  0  0  0
 15 16  2  0  0  0  0
 16 17  1  0  0  0  0
 17 18  2  0  0  0  0
 18 19  1  0  0  0  0
 18 20  1  0  0  0  0
 20 21  2  0  0  0  0
 21 15  1  0  0  0  0
 11 22  1  0  0  0  0
 22 23  2  0  0  0  0
 23 24  1  0  0  0  0
 24 25  2  0  0  0  0
 25 26  1  0  0  0  0
 26 27  2  0  0  0  0
 27 22  1  0  0  0  0
M  END
>  <Other ID>
EPL-BS0512

>  <sub series>
singles

>  <Source>
Epichem

>  <% growth M.myc at 100 uM>
44.01

>  <% growth M.myc at 25 uM>
71.72

>  <M. Myc IC50>


>  <M. Myc IC90>


>  <MIC50>


$$$$
Chemistry 26
  StarDrop          2D                              

 30 33  0  0  0  0  0  0  0  0999 V2000
    3.6384   -0.9011    0.0000 F   0  0  0  0  0  0  0  0  0  0  0  0
    2.5988   -1.5004    0.0000 C   0  0  0  0  0  0  0  0  0  0  0  0
    2.5984   -2.7004    0.0000 F   0  0  0  0  0  0  0  0  0  0  0  0
    3.6377   -2.1009    0.0000 F   0  0  0  0  0  0  0  0  0  0  0  0
    1.2990   -0.7500    0.0000 C   0  0  0  0  0  0  0  0  0  0  0  0
    1.2990    0.7500    0.0000 C   0  0  0  0  0  0  0  0  0  0  0  0
    0.0000    1.5000    0.0000 C   0  0  0  0  0  0  0  0  0  0  0  0
   -1.2990    0.7500    0.0000 C   0  0  0  0  0  0  0  0  0  0  0  0
   -1.2990   -0.7500    0.0000 C   0  0  0  0  0  0  0  0  0  0  0  0
    0.0000   -1.5000    0.0000 C   0  0  0  0  0  0  0  0  0  0  0  0
   -2.6003    1.4977    0.0000 C   0  0  0  0  0  0  0  0  0  0  0  0
   -3.8990    0.7455    0.0000 N   0  0  0  0  0  0  0  0  0  0  0  0
   -5.2003    1.4932    0.0000 C   0  0  0  0  0  0  0  0  0  0  0  0
   -6.6045    1.0792    0.0000 C   0  0  0  0  0  0  0  0  0  0  0  0
   -6.9927    2.5281    0.0000 N   0  0  0  0  0  0  0  0  0  0  0  0
   -5.5438    2.9163    0.0000 C   0  0  0  0  0  0  0  0  0  0  0  0
   -8.2856    3.2782    0.0000 C   0  0  0  0  0  0  0  0  0  0  0  0
   -9.3259    2.6800    0.0000 O   0  0  0  0  0  0  0  0  0  0  0  0
   -8.2833    4.7790    0.0000 C   0  0  0  0  0  0  0  0  0  0  0  0
   -9.5797    5.5337    0.0000 C   0  0  0  0  0  0  0  0  0  0  0  0
   -9.5744    7.0336    0.0000 C   0  0  0  0  0  0  0  0  0  0  0  0
   -8.2728    7.7791    0.0000 C   0  0  0  0  0  0  0  0  0  0  0  0
   -6.9764    7.0245    0.0000 C   0  0  0  0  0  0  0  0  0  0  0  0
   -6.9816    5.5245    0.0000 C   0  0  0  0  0  0  0  0  0  0  0  0
   -2.6030    2.9985    0.0000 C   0  0  0  0  0  0  0  0  0  0  0  0
   -3.9023    3.7481    0.0000 C   0  0  0  0  0  0  0  0  0  0  0  0
   -3.9029    5.2481    0.0000 C   0  0  0  0  0  0  0  0  0  0  0  0
   -2.6041    5.9986    0.0000 C   0  0  0  0  0  0  0  0  0  0  0  0
   -1.3048    5.2491    0.0000 N   0  0  0  0  0  0  0  0  0  0  0  0
   -1.3042    3.7491    0.0000 C   0  0  0  0  0  0  0  0  0  0  0  0
  1  2  1  0  0  0  0
  2  3  1  0  0  0  0
  2  4  1  0  0  0  0
  2  5  1  0  0  0  0
  5  6  2  0  0  0  0
  6  7  1  0  0  0  0
  7  8  2  0  0  0  0
  8  9  1  0  0  0  0
  9 10  2  0  0  0  0
 10  5  1  0  0  0  0
  8 11  1  0  0  0  0
 11 12  1  0  0  0  0
 12 13  1  0  0  0  0
 13 14  1  0  0  0  0
 14 15  1  0  0  0  0
 15 16  1  0  0  0  0
 16 13  1  0  0  0  0
 15 17  1  0  0  0  0
 17 18  2  0  0  0  0
 17 19  1  0  0  0  0
 19 20  2  0  0  0  0
 20 21  1  0  0  0  0
 21 22  2  0  0  0  0
 22 23  1  0  0  0  0
 23 24  2  0  0  0  0
 24 19  1  0  0  0  0
 11 25  1  0  0  0  0
 25 26  2  0  0  0  0
 26 27  1  0  0  0  0
 27 28  2  0  0  0  0
 28 29  1  0  0  0  0
 29 30  2  0  0  0  0
 30 25  1  0  0  0  0
M  END
>  <Other ID>
EPL-BS0831

>  <sub series>
singles

>  <Source>
Epichem

>  <% growth M.myc at 100 uM>
66.49

>  <% growth M.myc at 25 uM>
71.17

>  <M. Myc IC50>


>  <M. Myc IC90>


>  <MIC50>


$$$$
Chemistry 93
  StarDrop          2D                              

 24 26  0  0  0  0  0  0  0  0999 V2000
    2.3383   -1.3500    0.0000 Cl  0  0  0  0  0  0  0  0  0  0  0  0
    1.2990   -0.7500    0.0000 C   0  0  0  0  0  0  0  0  0  0  0  0
    1.2990    0.7500    0.0000 C   0  0  0  0  0  0  0  0  0  0  0  0
    0.0000    1.5000    0.0000 C   0  0  0  0  0  0  0  0  0  0  0  0
   -1.2990    0.7500    0.0000 C   0  0  0  0  0  0  0  0  0  0  0  0
   -1.2990   -0.7500    0.0000 C   0  0  0  0  0  0  0  0  0  0  0  0
    0.0000   -1.5000    0.0000 C   0  0  0  0  0  0  0  0  0  0  0  0
   -2.6003    1.4977    0.0000 C   0  0  0  0  0  0  0  0  0  0  0  0
   -3.8990    0.7455    0.0000 N   0  0  0  0  0  0  0  0  0  0  0  0
   -5.2003    1.4932    0.0000 C   0  0  0  0  0  0  0  0  0  0  0  0
   -5.2024    2.6932    0.0000 O   0  0  0  0  0  0  0  0  0  0  0  0
   -6.4990    0.7409    0.0000 C   0  0  0  0  0  0  0  0  0  0  0  0
   -7.8007    1.4864    0.0000 C   0  0  0  0  0  0  0  0  0  0  0  0
   -9.0971    0.7319    0.0000 C   0  0  0  0  0  0  0  0  0  0  0  0
   -9.0919   -0.7681    0.0000 C   0  0  0  0  0  0  0  0  0  0  0  0
  -10.1291   -1.3717    0.0000 Cl  0  0  0  0  0  0  0  0  0  0  0  0
   -7.7903   -1.5136    0.0000 C   0  0  0  0  0  0  0  0  0  0  0  0
   -6.4939   -0.7591    0.0000 C   0  0  0  0  0  0  0  0  0  0  0  0
   -2.6030    2.9985    0.0000 C   0  0  0  0  0  0  0  0  0  0  0  0
   -3.9023    3.7481    0.0000 C   0  0  0  0  0  0  0  0  0  0  0  0
   -3.9029    5.2481    0.0000 C   0  0  0  0  0  0  0  0  0  0  0  0
   -2.6041    5.9986    0.0000 C   0  0  0  0  0  0  0  0  0  0  0  0
   -1.3048    5.2491    0.0000 N   0  0  0  0  0  0  0  0  0  0  0  0
   -1.3042    3.7491    0.0000 C   0  0  0  0  0  0  0  0  0  0  0  0
  1  2  1  0  0  0  0
  2  3  2  0  0  0  0
  3  4  1  0  0  0  0
  4  5  2  0  0  0  0
  5  6  1  0  0  0  0
  6  7  2  0  0  0  0
  7  2  1  0  0  0  0
  5  8  1  0  0  0  0
  8  9  1  0  0  0  0
  9 10  1  0  0  0  0
 10 11  2  0  0  0  0
 10 12  1  0  0  0  0
 12 13  2  0  0  0  0
 13 14  1  0  0  0  0
 14 15  2  0  0  0  0
 15 16  1  0  0  0  0
 15 17  1  0  0  0  0
 17 18  2  0  0  0  0
 18 12  1  0  0  0  0
  8 19  1  0  0  0  0
 19 20  2  0  0  0  0
 20 21  1  0  0  0  0
 21 22  2  0  0  0  0
 22 23  1  0  0  0  0
 23 24  2  0  0  0  0
 24 19  1  0  0  0  0
M  END
>  <Other ID>
EPL-BS0528

>  <sub series>
singles

>  <Source>
Epichem

>  <% growth M.myc at 100 uM>
81.56

>  <% growth M.myc at 25 uM>
83.65

>  <M. Myc IC50>


>  <M. Myc IC90>


>  <MIC50>


$$$$
Chemistry 103
  StarDrop          2D                              

 30 32  0  0  0  0  0  0  0  0999 V2000
    1.5215  -11.6617    0.0000 C   0  0  0  0  0  0  0  0  0  0  0  0
    2.5637  -11.0669    0.0000 C   0  0  0  0  0  0  0  0  0  0  0  0
    3.5997  -11.6724    0.0000 C   0  0  0  0  0  0  0  0  0  0  0  0
    2.5575  -12.2669    0.0000 C   0  0  0  0  0  0  0  0  0  0  0  0
    2.5721   -9.5661    0.0000 O   0  0  0  0  0  0  0  0  0  0  0  0
    3.8756   -8.8222    0.0000 C   0  0  0  0  0  0  0  0  0  0  0  0
    4.9116   -9.4276    0.0000 O   0  0  0  0  0  0  0  0  0  0  0  0
    3.8839   -7.3274    0.0000 N   0  0  0  0  0  0  0  0  0  0  0  0
    4.9483   -6.2705    0.0000 C   0  0  0  0  0  0  0  0  0  0  0  0
    3.8912   -5.2578    0.0000 C   0  0  0  0  0  0  0  0  0  0  0  0
    3.8933   -3.7570    0.0000 C   0  0  0  0  0  0  0  0  0  0  0  0
    2.5951   -3.0039    0.0000 N   0  0  0  0  0  0  0  0  0  0  0  0
    2.5973   -1.5031    0.0000 C   0  0  0  0  0  0  0  0  0  0  0  0
    1.2990   -0.7500    0.0000 C   0  0  0  0  0  0  0  0  0  0  0  0
    1.2990    0.7500    0.0000 C   0  0  0  0  0  0  0  0  0  0  0  0
    0.0000    1.5000    0.0000 C   0  0  0  0  0  0  0  0  0  0  0  0
   -1.2990    0.7500    0.0000 C   0  0  0  0  0  0  0  0  0  0  0  0
   -1.2990   -0.7500    0.0000 C   0  0  0  0  0  0  0  0  0  0  0  0
    0.0000   -1.5000    0.0000 C   0  0  0  0  0  0  0  0  0  0  0  0
   -2.5988    1.5004    0.0000 C   0  0  0  0  0  0  0  0  0  0  0  0
   -2.5996    2.7004    0.0000 F   0  0  0  0  0  0  0  0  0  0  0  0
   -3.6378    0.9001    0.0000 F   0  0  0  0  0  0  0  0  0  0  0  0
   -3.6383    2.0999    0.0000 F   0  0  0  0  0  0  0  0  0  0  0  0
    3.8982   -0.7550    0.0000 C   0  0  0  0  0  0  0  0  0  0  0  0
    3.9030    0.7451    0.0000 C   0  0  0  0  0  0  0  0  0  0  0  0
    5.2044    1.4911    0.0000 C   0  0  0  0  0  0  0  0  0  0  0  0
    6.5011    0.7370    0.0000 C   0  0  0  0  0  0  0  0  0  0  0  0
    6.4964   -0.7630    0.0000 N   0  0  0  0  0  0  0  0  0  0  0  0
    5.1951   -1.5089    0.0000 C   0  0  0  0  0  0  0  0  0  0  0  0
    2.8270   -6.2631    0.0000 C   0  0  0  0  0  0  0  0  0  0  0  0
  1  2  1  0  0  0  0
  2  3  1  0  0  0  0
  2  4  1  0  0  0  0
  2  5  1  0  0  0  0
  5  6  1  0  0  0  0
  6  7  2  0  0  0  0
  6  8  1  0  0  0  0
  8  9  1  0  0  0  0
  9 10  1  0  0  0  0
 10 11  1  0  0  0  0
 11 12  1  0  0  0  0
 12 13  1  0  0  0  0
 13 14  1  0  0  0  0
 14 15  2  0  0  0  0
 15 16  1  0  0  0  0
 16 17  2  0  0  0  0
 17 18  1  0  0  0  0
 18 19  2  0  0  0  0
 19 14  1  0  0  0  0
 17 20  1  0  0  0  0
 20 21  1  0  0  0  0
 20 22  1  0  0  0  0
 20 23  1  0  0  0  0
 13 24  1  0  0  0  0
 24 25  2  0  0  0  0
 25 26  1  0  0  0  0
 26 27  2  0  0  0  0
 27 28  1  0  0  0  0
 28 29  2  0  0  0  0
 29 24  1  0  0  0  0
 10 30  1  0  0  0  0
 30  8  1  0  0  0  0
M  END
>  <Other ID>
EPL-BS0761

>  <sub series>
singles

>  <Source>
Epichem

>  <% growth M.myc at 100 uM>
-4.327

>  <% growth M.myc at 25 uM>
74.96

>  <M. Myc IC50>


>  <M. Myc IC90>


>  <MIC50>


$$$$
Chemistry 0
  StarDrop          2D                              

 21 23  0  0  0  0  0  0  0  0999 V2000
    1.8530   -3.0272    0.0000 O   0  0  0  0  0  0  0  0  0  0  0  0
    2.2638   -1.8997    0.0000 C   0  0  0  0  0  0  0  0  0  0  0  0
    1.2990   -0.7500    0.0000 C   0  0  0  0  0  0  0  0  0  0  0  0
    1.2990    0.7500    0.0000 C   0  0  0  0  0  0  0  0  0  0  0  0
    0.0000    1.5000    0.0000 C   0  0  0  0  0  0  0  0  0  0  0  0
   -1.2990    0.7500    0.0000 C   0  0  0  0  0  0  0  0  0  0  0  0
   -2.3383    1.3500    0.0000 Cl  0  0  0  0  0  0  0  0  0  0  0  0
   -1.2990   -0.7500    0.0000 C   0  0  0  0  0  0  0  0  0  0  0  0
    0.0000   -1.5000    0.0000 C   0  0  0  0  0  0  0  0  0  0  0  0
    3.7419   -1.6400    0.0000 C   0  0  0  0  0  0  0  0  0  0  0  0
    4.7054   -2.7897    0.0000 C   0  0  0  0  0  0  0  0  0  0  0  0
    6.1828   -2.5302    0.0000 C   0  0  0  0  0  0  0  0  0  0  0  0
    6.6967   -1.1209    0.0000 C   0  0  0  0  0  0  0  0  0  0  0  0
    5.7332    0.0287    0.0000 N   0  0  0  0  0  0  0  0  0  0  0  0
    4.2559   -0.2308    0.0000 C   0  0  0  0  0  0  0  0  0  0  0  0
    0.7858   -2.1601    0.0000 C   0  0  0  0  0  0  0  0  0  0  0  0
    0.2725   -3.5695    0.0000 C   0  0  0  0  0  0  0  0  0  0  0  0
   -1.2047   -3.8298    0.0000 N   0  0  0  0  0  0  0  0  0  0  0  0
   -2.1687   -2.6805    0.0000 C   0  0  0  0  0  0  0  0  0  0  0  0
   -1.6555   -1.2711    0.0000 N   0  0  0  0  0  0  0  0  0  0  0  0
   -0.1782   -1.0108    0.0000 C   0  0  0  0  0  0  0  0  0  0  0  0
  1  2  1  0  0  0  0
  2  3  1  0  0  0  0
  3  4  2  0  0  0  0
  4  5  1  0  0  0  0
  5  6  2  0  0  0  0
  6  7  1  0  0  0  0
  6  8  1  0  0  0  0
  8  9  2  0  0  0  0
  9  3  1  0  0  0  0
  2 10  1  0  0  0  0
 10 11  2  0  0  0  0
 11 12  1  0  0  0  0
 12 13  2  0  0  0  0
 13 14  1  0  0  0  0
 14 15  2  0  0  0  0
 15 10  1  0  0  0  0
  2 16  1  0  0  0  0
 16 17  2  0  0  0  0
 17 18  1  0  0  0  0
 18 19  2  0  0  0  0
 19 20  1  0  0  0  0
 20 21  2  0  0  0  0
 21 16  1  0  0  0  0
M  END
>  <Other ID>
EPL-BS0083

>  <sub series>
singles

>  <Source>
Epichem

>  <% growth M.myc at 100 uM>
101.8

>  <% growth M.myc at 25 uM>
85.98

>  <M. Myc IC50>


>  <M. Myc IC90>


>  <MIC50>


$$$$
Chemistry 1
  StarDrop          2D                              

 22 24  0  0  0  0  0  0  0  0999 V2000
    3.1417    1.5281    0.0000 C   0  0  0  0  0  0  0  0  0  0  0  0
    4.0377    0.7299    0.0000 N   0  0  0  0  0  0  0  0  0  0  0  0
    5.5052    1.0408    0.0000 C   0  0  0  0  0  0  0  0  0  0  0  0
    6.2543   -0.2587    0.0000 C   0  0  0  0  0  0  0  0  0  0  0  0
    5.2499   -1.3728    0.0000 C   0  0  0  0  0  0  0  0  0  0  0  0
    3.8990   -0.7508    0.0000 C   0  0  0  0  0  0  0  0  0  0  0  0
    2.4208   -1.0105    0.0000 C   0  0  0  0  0  0  0  0  0  0  0  0
    2.0101   -2.1380    0.0000 O   0  0  0  0  0  0  0  0  0  0  0  0
    1.4561    0.1392    0.0000 C   0  0  0  0  0  0  0  0  0  0  0  0
    1.9691    1.5487    0.0000 C   0  0  0  0  0  0  0  0  0  0  0  0
    1.0050    2.6978    0.0000 C   0  0  0  0  0  0  0  0  0  0  0  0
   -0.4723    2.4373    0.0000 C   0  0  0  0  0  0  0  0  0  0  0  0
   -1.2436    3.3566    0.0000 Cl  0  0  0  0  0  0  0  0  0  0  0  0
   -0.9853    1.0278    0.0000 C   0  0  0  0  0  0  0  0  0  0  0  0
   -0.0211   -0.1213    0.0000 C   0  0  0  0  0  0  0  0  0  0  0  0
    3.3850   -2.1606    0.0000 C   0  0  0  0  0  0  0  0  0  0  0  0
    2.8713   -3.5699    0.0000 C   0  0  0  0  0  0  0  0  0  0  0  0
    3.8349   -4.7194    0.0000 C   0  0  0  0  0  0  0  0  0  0  0  0
    5.3122   -4.4596    0.0000 C   0  0  0  0  0  0  0  0  0  0  0  0
    6.0831   -5.3793    0.0000 Cl  0  0  0  0  0  0  0  0  0  0  0  0
    5.8259   -3.0503    0.0000 C   0  0  0  0  0  0  0  0  0  0  0  0
    4.8623   -1.9008    0.0000 C   0  0  0  0  0  0  0  0  0  0  0  0
  1  2  1  0  0  0  0
  2  3  1  0  0  0  0
  3  4  2  0  0  0  0
  4  5  1  0  0  0  0
  5  6  2  0  0  0  0
  6  2  1  0  0  0  0
  6  7  1  0  0  0  0
  7  8  1  0  0  0  0
  7  9  1  0  0  0  0
  9 10  2  0  0  0  0
 10 11  1  0  0  0  0
 11 12  2  0  0  0  0
 12 13  1  0  0  0  0
 12 14  1  0  0  0  0
 14 15  2  0  0  0  0
 15  9  1  0  0  0  0
  7 16  1  0  0  0  0
 16 17  2  0  0  0  0
 17 18  1  0  0  0  0
 18 19  2  0  0  0  0
 19 20  1  0  0  0  0
 19 21  1  0  0  0  0
 21 22  2  0  0  0  0
 22 16  1  0  0  0  0
M  END
>  <Other ID>
EPL-BS0118

>  <sub series>
singles

>  <Source>
Epichem

>  <% growth M.myc at 100 uM>
-2.058

>  <% growth M.myc at 25 uM>
45.47

>  <M. Myc IC50>


>  <M. Myc IC90>


>  <MIC50>


$$$$
Chemistry 4
  StarDrop          2D                              

 23 25  0  0  0  0  0  0  0  0999 V2000
    2.3383   -1.3500    0.0000 Cl  0  0  0  0  0  0  0  0  0  0  0  0
    1.2990   -0.7500    0.0000 C   0  0  0  0  0  0  0  0  0  0  0  0
    1.2990    0.7500    0.0000 C   0  0  0  0  0  0  0  0  0  0  0  0
    0.0000    1.5000    0.0000 C   0  0  0  0  0  0  0  0  0  0  0  0
   -1.2990    0.7500    0.0000 C   0  0  0  0  0  0  0  0  0  0  0  0
   -1.2990   -0.7500    0.0000 C   0  0  0  0  0  0  0  0  0  0  0  0
    0.0000   -1.5000    0.0000 C   0  0  0  0  0  0  0  0  0  0  0  0
   -2.5988    1.5004    0.0000 C   0  0  0  0  0  0  0  0  0  0  0  0
   -2.5998    3.0012    0.0000 C   0  0  0  0  0  0  0  0  0  0  0  0
   -1.3010    3.7533    0.0000 C   0  0  0  0  0  0  0  0  0  0  0  0
   -1.2997    5.2533    0.0000 C   0  0  0  0  0  0  0  0  0  0  0  0
   -0.0001    6.0023    0.0000 C   0  0  0  0  0  0  0  0  0  0  0  0
    1.2983    5.2513    0.0000 C   0  0  0  0  0  0  0  0  0  0  0  0
    1.2972    3.7513    0.0000 C   0  0  0  0  0  0  0  0  0  0  0  0
   -0.0024    3.0023    0.0000 C   0  0  0  0  0  0  0  0  0  0  0  0
   -3.8982    0.7496    0.0000 C   0  0  0  0  0  0  0  0  0  0  0  0
   -4.9373    0.1493    0.0000 N   0  0  0  0  0  0  0  0  0  0  0  0
   -3.8988    2.2502    0.0000 C   0  0  0  0  0  0  0  0  0  0  0  0
   -5.1975    1.4995    0.0000 C   0  0  0  0  0  0  0  0  0  0  0  0
   -6.4969    2.2489    0.0000 N   0  0  0  0  0  0  0  0  0  0  0  0
   -6.4976    3.7489    0.0000 C   0  0  0  0  0  0  0  0  0  0  0  0
   -5.1990    4.4995    0.0000 C   0  0  0  0  0  0  0  0  0  0  0  0
   -3.8996    3.7502    0.0000 N   0  0  0  0  0  0  0  0  0  0  0  0
  1  2  1  0  0  0  0
  2  3  2  0  0  0  0
  3  4  1  0  0  0  0
  4  5  2  0  0  0  0
  5  6  1  0  0  0  0
  6  7  2  0  0  0  0
  7  2  1  0  0  0  0
  5  8  1  0  0  0  0
  8  9  1  0  0  0  0
  9 10  1  0  0  0  0
 10 11  1  0  0  0  0
 11 12  1  0  0  0  0
 12 13  1  0  0  0  0
 13 14  1  0  0  0  0
 14 15  1  0  0  0  0
 15 10  1  0  0  0  0
  8 16  1  0  0  0  0
 16 17  3  0  0  0  0
  8 18  1  0  0  0  0
 18 19  2  0  0  0  0
 19 20  1  0  0  0  0
 20 21  2  0  0  0  0
 21 22  1  0  0  0  0
 22 23  2  0  0  0  0
 23 18  1  0  0  0  0
M  END
>  <Other ID>
EPL-BS0282

>  <sub series>
singles

>  <Source>
Epichem

>  <% growth M.myc at 100 uM>
25.39

>  <% growth M.myc at 25 uM>
57.23

>  <M. Myc IC50>


>  <M. Myc IC90>


>  <MIC50>


$$$$
Chemistry 5
  StarDrop          2D                              

 21 22  0  0  0  0  0  0  0  0999 V2000
    4.9335   -3.1592    0.0000 C   0  0  0  0  0  0  0  0  0  0  0  0
    3.8934   -3.7577    0.0000 C   0  0  0  0  0  0  0  0  0  0  0  0
    3.8920   -4.9577    0.0000 O   0  0  0  0  0  0  0  0  0  0  0  0
    2.5949   -3.0050    0.0000 N   0  0  0  0  0  0  0  0  0  0  0  0
    2.5966   -1.5042    0.0000 C   0  0  0  0  0  0  0  0  0  0  0  0
    1.2990   -0.7500    0.0000 C   0  0  0  0  0  0  0  0  0  0  0  0
    1.2990    0.7500    0.0000 C   0  0  0  0  0  0  0  0  0  0  0  0
    0.0000    1.5000    0.0000 C   0  0  0  0  0  0  0  0  0  0  0  0
   -1.2990    0.7500    0.0000 C   0  0  0  0  0  0  0  0  0  0  0  0
   -1.2990   -0.7500    0.0000 C   0  0  0  0  0  0  0  0  0  0  0  0
    0.0000   -1.5000    0.0000 C   0  0  0  0  0  0  0  0  0  0  0  0
   -2.5988    1.5004    0.0000 C   0  0  0  0  0  0  0  0  0  0  0  0
   -2.5996    2.7004    0.0000 F   0  0  0  0  0  0  0  0  0  0  0  0
   -3.6378    0.9001    0.0000 F   0  0  0  0  0  0  0  0  0  0  0  0
   -3.6383    2.0999    0.0000 F   0  0  0  0  0  0  0  0  0  0  0  0
    3.8990   -0.7582    0.0000 C   0  0  0  0  0  0  0  0  0  0  0  0
    3.9042    0.7419    0.0000 C   0  0  0  0  0  0  0  0  0  0  0  0
    5.2058    1.4875    0.0000 N   0  0  0  0  0  0  0  0  0  0  0  0
    6.5023    0.7331    0.0000 C   0  0  0  0  0  0  0  0  0  0  0  0
    6.4972   -0.7669    0.0000 C   0  0  0  0  0  0  0  0  0  0  0  0
    5.1956   -1.5125    0.0000 N   0  0  0  0  0  0  0  0  0  0  0  0
  1  2  1  0  0  0  0
  2  3  2  0  0  0  0
  2  4  1  0  0  0  0
  4  5  1  0  0  0  0
  5  6  1  0  0  0  0
  6  7  2  0  0  0  0
  7  8  1  0  0  0  0
  8  9  2  0  0  0  0
  9 10  1  0  0  0  0
 10 11  2  0  0  0  0
 11  6  1  0  0  0  0
  9 12  1  0  0  0  0
 12 13  1  0  0  0  0
 12 14  1  0  0  0  0
 12 15  1  0  0  0  0
  5 16  1  0  0  0  0
 16 17  2  0  0  0  0
 17 18  1  0  0  0  0
 18 19  2  0  0  0  0
 19 20  1  0  0  0  0
 20 21  2  0  0  0  0
 21 16  1  0  0  0  0
M  END
>  <Other ID>
EPL-BS0290

>  <sub series>
singles

>  <Source>
Epichem

>  <% growth M.myc at 100 uM>
111.3

>  <% growth M.myc at 25 uM>
96.62

>  <M. Myc IC50>


>  <M. Myc IC90>


>  <MIC50>


$$$$
Chemistry 6
  StarDrop          2D                              

 28 30  0  0  0  0  0  0  0  0999 V2000
    3.6384   -0.9011    0.0000 F   0  0  0  0  0  0  0  0  0  0  0  0
    2.5988   -1.5004    0.0000 C   0  0  0  0  0  0  0  0  0  0  0  0
    2.5984   -2.7004    0.0000 F   0  0  0  0  0  0  0  0  0  0  0  0
    3.6377   -2.1009    0.0000 F   0  0  0  0  0  0  0  0  0  0  0  0
    1.2990   -0.7500    0.0000 C   0  0  0  0  0  0  0  0  0  0  0  0
    1.2990    0.7500    0.0000 C   0  0  0  0  0  0  0  0  0  0  0  0
    0.0000    1.5000    0.0000 C   0  0  0  0  0  0  0  0  0  0  0  0
   -1.2990    0.7500    0.0000 C   0  0  0  0  0  0  0  0  0  0  0  0
   -1.2990   -0.7500    0.0000 C   0  0  0  0  0  0  0  0  0  0  0  0
    0.0000   -1.5000    0.0000 C   0  0  0  0  0  0  0  0  0  0  0  0
   -2.6003    1.4977    0.0000 C   0  0  0  0  0  0  0  0  0  0  0  0
   -3.8990    0.7455    0.0000 N   0  0  0  0  0  0  0  0  0  0  0  0
   -5.2003    1.4932    0.0000 S   0  0  0  0  0  0  0  0  0  0  0  0
   -5.2024    2.6932    0.0000 O   0  0  0  0  0  0  0  0  0  0  0  0
   -4.1622    2.0952    0.0000 O   0  0  0  0  0  0  0  0  0  0  0  0
   -6.4990    0.7409    0.0000 C   0  0  0  0  0  0  0  0  0  0  0  0
   -7.8003    1.4887    0.0000 C   0  0  0  0  0  0  0  0  0  0  0  0
   -9.0994    0.7387    0.0000 C   0  0  0  0  0  0  0  0  0  0  0  0
  -10.3984    1.4886    0.0000 C   0  0  0  0  0  0  0  0  0  0  0  0
  -10.3985    2.9886    0.0000 C   0  0  0  0  0  0  0  0  0  0  0  0
   -9.0995    3.7387    0.0000 C   0  0  0  0  0  0  0  0  0  0  0  0
   -7.8004    2.9887    0.0000 C   0  0  0  0  0  0  0  0  0  0  0  0
   -2.6030    2.9985    0.0000 C   0  0  0  0  0  0  0  0  0  0  0  0
   -3.9023    3.7481    0.0000 C   0  0  0  0  0  0  0  0  0  0  0  0
   -3.9029    5.2481    0.0000 N   0  0  0  0  0  0  0  0  0  0  0  0
   -2.6041    5.9986    0.0000 C   0  0  0  0  0  0  0  0  0  0  0  0
   -1.3048    5.2491    0.0000 C   0  0  0  0  0  0  0  0  0  0  0  0
   -1.3042    3.7491    0.0000 N   0  0  0  0  0  0  0  0  0  0  0  0
  1  2  1  0  0  0  0
  2  3  1  0  0  0  0
  2  4  1  0  0  0  0
  2  5  1  0  0  0  0
  5  6  2  0  0  0  0
  6  7  1  0  0  0  0
  7  8  2  0  0  0  0
  8  9  1  0  0  0  0
  9 10  2  0  0  0  0
 10  5  1  0  0  0  0
  8 11  1  0  0  0  0
 11 12  1  0  0  0  0
 12 13  1  0  0  0  0
 13 14  2  0  0  0  0
 13 15  2  0  0  0  0
 13 16  1  0  0  0  0
 16 17  1  0  0  0  0
 17 18  2  0  0  0  0
 18 19  1  0  0  0  0
 19 20  2  0  0  0  0
 20 21  1  0  0  0  0
 21 22  2  0  0  0  0
 22 17  1  0  0  0  0
 11 23  1  0  0  0  0
 23 24  2  0  0  0  0
 24 25  1  0  0  0  0
 25 26  2  0  0  0  0
 26 27  1  0  0  0  0
 27 28  2  0  0  0  0
 28 23  1  0  0  0  0
M  END
>  <Other ID>
EPL-BS0309

>  <sub series>
singles

>  <Source>
Epichem

>  <% growth M.myc at 100 uM>
81.48

>  <% growth M.myc at 25 uM>
90.53

>  <M. Myc IC50>


>  <M. Myc IC90>


>  <MIC50>


$$$$
Chemistry 7
  StarDrop          2D                              

 21 23  0  0  0  0  0  0  0  0999 V2000
    3.1871   -2.1384    0.0000 O   0  0  0  0  0  0  0  0  0  0  0  0
    2.7771   -1.0106    0.0000 C   0  0  0  0  0  0  0  0  0  0  0  0
    1.2990   -0.7500    0.0000 C   0  0  0  0  0  0  0  0  0  0  0  0
    1.2990    0.7500    0.0000 C   0  0  0  0  0  0  0  0  0  0  0  0
    0.0000    1.5000    0.0000 C   0  0  0  0  0  0  0  0  0  0  0  0
   -1.2990    0.7500    0.0000 C   0  0  0  0  0  0  0  0  0  0  0  0
   -2.3383    1.3500    0.0000 Cl  0  0  0  0  0  0  0  0  0  0  0  0
   -1.2990   -0.7500    0.0000 C   0  0  0  0  0  0  0  0  0  0  0  0
    0.0000   -1.5000    0.0000 C   0  0  0  0  0  0  0  0  0  0  0  0
    3.7425    0.1385    0.0000 C   0  0  0  0  0  0  0  0  0  0  0  0
    5.2196   -0.1229    0.0000 C   0  0  0  0  0  0  0  0  0  0  0  0
    6.1845    1.0255    0.0000 C   0  0  0  0  0  0  0  0  0  0  0  0
    5.6723    2.4354    0.0000 C   0  0  0  0  0  0  0  0  0  0  0  0
    4.1953    2.6968    0.0000 N   0  0  0  0  0  0  0  0  0  0  0  0
    3.2304    1.5483    0.0000 C   0  0  0  0  0  0  0  0  0  0  0  0
    1.8122   -2.1601    0.0000 C   0  0  0  0  0  0  0  0  0  0  0  0
    2.1890   -3.5988    0.0000 C   0  0  0  0  0  0  0  0  0  0  0  0
    0.9168   -4.3935    0.0000 N   0  0  0  0  0  0  0  0  0  0  0  0
   -0.2321   -3.4291    0.0000 C   0  0  0  0  0  0  0  0  0  0  0  0
   -1.3965   -3.7192    0.0000 Cl  0  0  0  0  0  0  0  0  0  0  0  0
    0.3300   -2.0384    0.0000 S   0  0  0  0  0  0  0  0  0  0  0  0
  1  2  1  0  0  0  0
  2  3  1  0  0  0  0
  3  4  2  0  0  0  0
  4  5  1  0  0  0  0
  5  6  2  0  0  0  0
  6  7  1  0  0  0  0
  6  8  1  0  0  0  0
  8  9  2  0  0  0  0
  9  3  1  0  0  0  0
  2 10  1  0  0  0  0
 10 11  2  0  0  0  0
 11 12  1  0  0  0  0
 12 13  2  0  0  0  0
 13 14  1  0  0  0  0
 14 15  2  0  0  0  0
 15 10  1  0  0  0  0
  2 16  1  0  0  0  0
 16 17  2  0  0  0  0
 17 18  1  0  0  0  0
 18 19  2  0  0  0  0
 19 20  1  0  0  0  0
 19 21  1  0  0  0  0
 21 16  1  0  0  0  0
M  END
>  <Other ID>
EPL-BS0374

>  <sub series>
singles

>  <Source>
Epichem

>  <% growth M.myc at 100 uM>
-2.678

>  <% growth M.myc at 25 uM>
97.52

>  <M. Myc IC50>


>  <M. Myc IC90>


>  <MIC50>


$$$$
Chemistry 10
  StarDrop          2D                              

 35 38  0  0  0  0  0  0  0  0999 V2000
    2.3383   -1.3500    0.0000 F   0  0  0  0  0  0  0  0  0  0  0  0
    1.2990   -0.7500    0.0000 C   0  0  0  0  0  0  0  0  0  0  0  0
    1.2990    0.7500    0.0000 C   0  0  0  0  0  0  0  0  0  0  0  0
    0.0000    1.5000    0.0000 C   0  0  0  0  0  0  0  0  0  0  0  0
   -1.2990    0.7500    0.0000 C   0  0  0  0  0  0  0  0  0  0  0  0
   -2.5973    1.5031    0.0000 C   0  0  0  0  0  0  0  0  0  0  0  0
   -2.5951    3.0039    0.0000 N   0  0  0  0  0  0  0  0  0  0  0  0
   -3.8933    3.7570    0.0000 C   0  0  0  0  0  0  0  0  0  0  0  0
   -3.8934    5.2570    0.0000 C   0  0  0  0  0  0  0  0  0  0  0  0
   -5.1924    6.0070    0.0000 C   0  0  0  0  0  0  0  0  0  0  0  0
   -6.4915    5.2571    0.0000 N   0  0  0  0  0  0  0  0  0  0  0  0
   -6.4915    3.7571    0.0000 C   0  0  0  0  0  0  0  0  0  0  0  0
   -5.1925    3.0070    0.0000 C   0  0  0  0  0  0  0  0  0  0  0  0
   -7.7912    6.0075    0.0000 S   0  0  0  0  0  0  0  0  0  0  0  0
   -8.8303    5.4072    0.0000 O   0  0  0  0  0  0  0  0  0  0  0  0
   -7.7910    4.8075    0.0000 O   0  0  0  0  0  0  0  0  0  0  0  0
   -7.7921    7.5083    0.0000 C   0  0  0  0  0  0  0  0  0  0  0  0
   -9.0916    8.2575    0.0000 C   0  0  0  0  0  0  0  0  0  0  0  0
   -9.0926    9.7575    0.0000 C   0  0  0  0  0  0  0  0  0  0  0  0
   -7.7940   10.5083    0.0000 C   0  0  0  0  0  0  0  0  0  0  0  0
   -6.4945    9.7591    0.0000 C   0  0  0  0  0  0  0  0  0  0  0  0
   -6.4936    8.2591    0.0000 C   0  0  0  0  0  0  0  0  0  0  0  0
   -7.7949   12.0091    0.0000 C   0  0  0  0  0  0  0  0  0  0  0  0
   -8.8341   12.6092    0.0000 F   0  0  0  0  0  0  0  0  0  0  0  0
   -6.7559   12.6095    0.0000 F   0  0  0  0  0  0  0  0  0  0  0  0
   -7.7951   13.2091    0.0000 F   0  0  0  0  0  0  0  0  0  0  0  0
   -3.8982    0.7550    0.0000 C   0  0  0  0  0  0  0  0  0  0  0  0
   -5.1971    1.5054    0.0000 C   0  0  0  0  0  0  0  0  0  0  0  0
   -6.4964    0.7559    0.0000 N   0  0  0  0  0  0  0  0  0  0  0  0
   -6.4970   -0.7441    0.0000 C   0  0  0  0  0  0  0  0  0  0  0  0
   -5.1982   -1.4946    0.0000 C   0  0  0  0  0  0  0  0  0  0  0  0
   -3.8989   -0.7451    0.0000 N   0  0  0  0  0  0  0  0  0  0  0  0
   -1.2990   -0.7500    0.0000 C   0  0  0  0  0  0  0  0  0  0  0  0
   -2.3383   -1.3500    0.0000 F   0  0  0  0  0  0  0  0  0  0  0  0
    0.0000   -1.5000    0.0000 C   0  0  0  0  0  0  0  0  0  0  0  0
  1  2  1  0  0  0  0
  2  3  2  0  0  0  0
  3  4  1  0  0  0  0
  4  5  2  0  0  0  0
  5  6  1  0  0  0  0
  6  7  1  0  0  0  0
  7  8  1  0  0  0  0
  8  9  1  0  0  0  0
  9 10  1  0  0  0  0
 10 11  1  0  0  0  0
 11 12  1  0  0  0  0
 12 13  1  0  0  0  0
 13  8  1  0  0  0  0
 11 14  1  0  0  0  0
 14 15  2  0  0  0  0
 14 16  2  0  0  0  0
 14 17  1  0  0  0  0
 17 18  2  0  0  0  0
 18 19  1  0  0  0  0
 19 20  2  0  0  0  0
 20 21  1  0  0  0  0
 21 22  2  0  0  0  0
 22 17  1  0  0  0  0
 20 23  1  0  0  0  0
 23 24  1  0  0  0  0
 23 25  1  0  0  0  0
 23 26  1  0  0  0  0
  6 27  1  0  0  0  0
 27 28  2  0  0  0  0
 28 29  1  0  0  0  0
 29 30  2  0  0  0  0
 30 31  1  0  0  0  0
 31 32  2  0  0  0  0
 32 27  1  0  0  0  0
  5 33  1  0  0  0  0
 33 34  1  0  0  0  0
 33 35  2  0  0  0  0
 35  2  1  0  0  0  0
M  END
>  <Other ID>
EPL-BS0425

>  <sub series>
singles

>  <Source>
Epichem

>  <% growth M.myc at 100 uM>
63.1

>  <% growth M.myc at 25 uM>
66.13

>  <M. Myc IC50>


>  <M. Myc IC90>


>  <MIC50>


$$$$
Chemistry 11
  StarDrop          2D                              

 29 31  0  0  0  0  0  0  0  0999 V2000
    3.6331   -3.6060    0.0000 C   0  0  0  0  0  0  0  0  0  0  0  0
    2.5951   -3.0039    0.0000 N   0  0  0  0  0  0  0  0  0  0  0  0
    1.5548   -3.6021    0.0000 C   0  0  0  0  0  0  0  0  0  0  0  0
    2.5973   -1.5031    0.0000 C   0  0  0  0  0  0  0  0  0  0  0  0
    3.6375   -0.9049    0.0000 O   0  0  0  0  0  0  0  0  0  0  0  0
    1.2990   -0.7500    0.0000 N   0  0  0  0  0  0  0  0  0  0  0  0
    1.2990    0.7500    0.0000 C   0  0  0  0  0  0  0  0  0  0  0  0
    0.0000    1.5000    0.0000 C   0  0  0  0  0  0  0  0  0  0  0  0
   -1.2990    0.7500    0.0000 C   0  0  0  0  0  0  0  0  0  0  0  0
   -1.2990   -0.7500    0.0000 C   0  0  0  0  0  0  0  0  0  0  0  0
    0.0000   -1.5000    0.0000 C   0  0  0  0  0  0  0  0  0  0  0  0
   -2.6003    1.4977    0.0000 N   0  0  0  0  0  0  0  0  0  0  0  0
   -3.8990    0.7455    0.0000 C   0  0  0  0  0  0  0  0  0  0  0  0
   -5.2003    1.4932    0.0000 C   0  0  0  0  0  0  0  0  0  0  0  0
   -6.4994    0.7432    0.0000 C   0  0  0  0  0  0  0  0  0  0  0  0
   -7.7985    1.4932    0.0000 C   0  0  0  0  0  0  0  0  0  0  0  0
   -7.7985    2.9932    0.0000 C   0  0  0  0  0  0  0  0  0  0  0  0
   -6.4995    3.7432    0.0000 C   0  0  0  0  0  0  0  0  0  0  0  0
   -5.2004    2.9933    0.0000 C   0  0  0  0  0  0  0  0  0  0  0  0
   -9.0983    3.7436    0.0000 C   0  0  0  0  0  0  0  0  0  0  0  0
  -10.1379    3.1442    0.0000 F   0  0  0  0  0  0  0  0  0  0  0  0
   -9.0979    4.9436    0.0000 F   0  0  0  0  0  0  0  0  0  0  0  0
  -10.1372    4.3440    0.0000 F   0  0  0  0  0  0  0  0  0  0  0  0
   -3.8964   -0.7553    0.0000 C   0  0  0  0  0  0  0  0  0  0  0  0
   -5.1931   -1.5094    0.0000 C   0  0  0  0  0  0  0  0  0  0  0  0
   -5.1885   -3.0094    0.0000 N   0  0  0  0  0  0  0  0  0  0  0  0
   -3.8871   -3.7554    0.0000 C   0  0  0  0  0  0  0  0  0  0  0  0
   -2.5904   -3.0014    0.0000 C   0  0  0  0  0  0  0  0  0  0  0  0
   -2.5951   -1.5014    0.0000 N   0  0  0  0  0  0  0  0  0  0  0  0
  1  2  1  0  0  0  0
  2  3  1  0  0  0  0
  2  4  1  0  0  0  0
  4  5  2  0  0  0  0
  4  6  1  0  0  0  0
  6  7  1  0  0  0  0
  7  8  1  0  0  0  0
  8  9  1  0  0  0  0
  9 10  1  0  0  0  0
 10 11  1  0  0  0  0
 11  6  1  0  0  0  0
  9 12  1  0  0  0  0
 12 13  1  0  0  0  0
 13 14  1  0  0  0  0
 14 15  2  0  0  0  0
 15 16  1  0  0  0  0
 16 17  2  0  0  0  0
 17 18  1  0  0  0  0
 18 19  2  0  0  0  0
 19 14  1  0  0  0  0
 17 20  1  0  0  0  0
 20 21  1  0  0  0  0
 20 22  1  0  0  0  0
 20 23  1  0  0  0  0
 13 24  1  0  0  0  0
 24 25  2  0  0  0  0
 25 26  1  0  0  0  0
 26 27  2  0  0  0  0
 27 28  1  0  0  0  0
 28 29  2  0  0  0  0
 29 24  1  0  0  0  0
M  END
>  <Other ID>
EPL-BS0435

>  <sub series>
singles

>  <Source>
Epichem

>  <% growth M.myc at 100 uM>
80.13

>  <% growth M.myc at 25 uM>
85.73

>  <M. Myc IC50>


>  <M. Myc IC90>


>  <MIC50>


$$$$
Chemistry 24
  StarDrop          2D                              

 31 34  0  0  0  0  0  0  0  0999 V2000
    3.6384   -0.9011    0.0000 F   0  0  0  0  0  0  0  0  0  0  0  0
    2.5988   -1.5004    0.0000 C   0  0  0  0  0  0  0  0  0  0  0  0
    2.5984   -2.7004    0.0000 F   0  0  0  0  0  0  0  0  0  0  0  0
    3.6377   -2.1009    0.0000 F   0  0  0  0  0  0  0  0  0  0  0  0
    1.2990   -0.7500    0.0000 C   0  0  0  0  0  0  0  0  0  0  0  0
    1.2990    0.7500    0.0000 C   0  0  0  0  0  0  0  0  0  0  0  0
    0.0000    1.5000    0.0000 C   0  0  0  0  0  0  0  0  0  0  0  0
   -1.2990    0.7500    0.0000 C   0  0  0  0  0  0  0  0  0  0  0  0
   -1.2990   -0.7500    0.0000 C   0  0  0  0  0  0  0  0  0  0  0  0
    0.0000   -1.5000    0.0000 C   0  0  0  0  0  0  0  0  0  0  0  0
   -2.6003    1.4977    0.0000 C   0  0  0  0  0  0  0  0  0  0  0  0
   -3.8990    0.7455    0.0000 N   0  0  0  0  0  0  0  0  0  0  0  0
   -5.2003    1.4932    0.0000 C   0  0  0  0  0  0  0  0  0  0  0  0
   -6.4994    0.7432    0.0000 C   0  0  0  0  0  0  0  0  0  0  0  0
   -7.7985    1.4932    0.0000 C   0  0  0  0  0  0  0  0  0  0  0  0
   -7.7985    2.9932    0.0000 N   0  0  0  0  0  0  0  0  0  0  0  0
   -6.4995    3.7432    0.0000 C   0  0  0  0  0  0  0  0  0  0  0  0
   -5.2004    2.9933    0.0000 C   0  0  0  0  0  0  0  0  0  0  0  0
   -9.0967    3.7462    0.0000 C   0  0  0  0  0  0  0  0  0  0  0  0
  -10.1370    3.1480    0.0000 O   0  0  0  0  0  0  0  0  0  0  0  0
   -9.0947    5.2471    0.0000 C   0  0  0  0  0  0  0  0  0  0  0  0
  -10.3911    6.0016    0.0000 C   0  0  0  0  0  0  0  0  0  0  0  0
  -10.3859    7.5016    0.0000 C   0  0  0  0  0  0  0  0  0  0  0  0
   -9.0843    8.2471    0.0000 C   0  0  0  0  0  0  0  0  0  0  0  0
   -7.7879    7.4927    0.0000 C   0  0  0  0  0  0  0  0  0  0  0  0
   -7.7930    5.9927    0.0000 C   0  0  0  0  0  0  0  0  0  0  0  0
   -2.6030    2.9985    0.0000 C   0  0  0  0  0  0  0  0  0  0  0  0
   -3.8168    3.8579    0.0000 C   0  0  0  0  0  0  0  0  0  0  0  0
   -3.3539    5.2846    0.0000 N   0  0  0  0  0  0  0  0  0  0  0  0
   -1.8539    5.2852    0.0000 C   0  0  0  0  0  0  0  0  0  0  0  0
   -1.3898    3.8588    0.0000 S   0  0  0  0  0  0  0  0  0  0  0  0
  1  2  1  0  0  0  0
  2  3  1  0  0  0  0
  2  4  1  0  0  0  0
  2  5  1  0  0  0  0
  5  6  2  0  0  0  0
  6  7  1  0  0  0  0
  7  8  2  0  0  0  0
  8  9  1  0  0  0  0
  9 10  2  0  0  0  0
 10  5  1  0  0  0  0
  8 11  1  0  0  0  0
 11 12  1  0  0  0  0
 12 13  1  0  0  0  0
 13 14  1  0  0  0  0
 14 15  1  0  0  0  0
 15 16  1  0  0  0  0
 16 17  1  0  0  0  0
 17 18  1  0  0  0  0
 18 13  1  0  0  0  0
 16 19  1  0  0  0  0
 19 20  2  0  0  0  0
 19 21  1  0  0  0  0
 21 22  2  0  0  0  0
 22 23  1  0  0  0  0
 23 24  2  0  0  0  0
 24 25  1  0  0  0  0
 25 26  2  0  0  0  0
 26 21  1  0  0  0  0
 11 27  1  0  0  0  0
 27 28  2  0  0  0  0
 28 29  1  0  0  0  0
 29 30  2  0  0  0  0
 30 31  1  0  0  0  0
 31 27  1  0  0  0  0
M  END
>  <Other ID>
EPL-BS0793

>  <sub series>
singles

>  <Source>
Epichem

>  <% growth M.myc at 100 uM>
35.18

>  <% growth M.myc at 25 uM>
87.93

>  <M. Myc IC50>


>  <M. Myc IC90>


>  <MIC50>


$$$$
Chemistry 27
  StarDrop          2D                              

 32 35  0  0  0  0  0  0  0  0999 V2000
    0.2409   -3.4780    0.0000 C   0  0  0  0  0  0  0  0  0  0  0  0
    1.3786   -3.8595    0.0000 C   0  0  0  0  0  0  0  0  0  0  0  0
    1.8372   -5.2877    0.0000 O   0  0  0  0  0  0  0  0  0  0  0  0
    3.3372   -5.2929    0.0000 N   0  0  0  0  0  0  0  0  0  0  0  0
    3.8056   -3.8679    0.0000 C   0  0  0  0  0  0  0  0  0  0  0  0
    4.9460   -3.4943    0.0000 C   0  0  0  0  0  0  0  0  0  0  0  0
    2.5951   -3.0039    0.0000 C   0  0  0  0  0  0  0  0  0  0  0  0
    2.5973   -1.5031    0.0000 C   0  0  0  0  0  0  0  0  0  0  0  0
    3.6375   -0.9049    0.0000 O   0  0  0  0  0  0  0  0  0  0  0  0
    1.2990   -0.7500    0.0000 N   0  0  0  0  0  0  0  0  0  0  0  0
    1.2990    0.7500    0.0000 C   0  0  0  0  0  0  0  0  0  0  0  0
    0.0000    1.5000    0.0000 C   0  0  0  0  0  0  0  0  0  0  0  0
   -1.2990    0.7500    0.0000 C   0  0  0  0  0  0  0  0  0  0  0  0
   -1.2990   -0.7500    0.0000 C   0  0  0  0  0  0  0  0  0  0  0  0
    0.0000   -1.5000    0.0000 C   0  0  0  0  0  0  0  0  0  0  0  0
   -2.5998    1.4986    0.0000 N   0  0  0  0  0  0  0  0  0  0  0  0
   -3.8983    0.7460    0.0000 C   0  0  0  0  0  0  0  0  0  0  0  0
   -3.8989   -0.7540    0.0000 C   0  0  0  0  0  0  0  0  0  0  0  0
   -5.1982   -1.5035    0.0000 C   0  0  0  0  0  0  0  0  0  0  0  0
   -6.4970   -0.7530    0.0000 C   0  0  0  0  0  0  0  0  0  0  0  0
   -6.4964    0.7470    0.0000 C   0  0  0  0  0  0  0  0  0  0  0  0
   -5.1971    1.4965    0.0000 C   0  0  0  0  0  0  0  0  0  0  0  0
   -7.7970   -1.5030    0.0000 C   0  0  0  0  0  0  0  0  0  0  0  0
   -7.7982   -2.7030    0.0000 F   0  0  0  0  0  0  0  0  0  0  0  0
   -8.8358   -0.9023    0.0000 F   0  0  0  0  0  0  0  0  0  0  0  0
   -8.8367   -2.1021    0.0000 F   0  0  0  0  0  0  0  0  0  0  0  0
   -2.6013    2.9994    0.0000 C   0  0  0  0  0  0  0  0  0  0  0  0
   -1.3046    3.7535    0.0000 C   0  0  0  0  0  0  0  0  0  0  0  0
   -1.3092    5.2535    0.0000 C   0  0  0  0  0  0  0  0  0  0  0  0
   -2.6105    5.9995    0.0000 C   0  0  0  0  0  0  0  0  0  0  0  0
   -3.9073    5.2455    0.0000 N   0  0  0  0  0  0  0  0  0  0  0  0
   -3.9027    3.7455    0.0000 C   0  0  0  0  0  0  0  0  0  0  0  0
  1  2  1  0  0  0  0
  2  3  1  0  0  0  0
  3  4  1  0  0  0  0
  4  5  2  0  0  0  0
  5  6  1  0  0  0  0
  5  7  1  0  0  0  0
  7  2  2  0  0  0  0
  7  8  1  0  0  0  0
  8  9  2  0  0  0  0
  8 10  1  0  0  0  0
 10 11  1  0  0  0  0
 11 12  1  0  0  0  0
 12 13  1  0  0  0  0
 13 14  1  0  0  0  0
 14 15  1  0  0  0  0
 15 10  1  0  0  0  0
 13 16  1  0  0  0  0
 16 17  1  0  0  0  0
 17 18  2  0  0  0  0
 18 19  1  0  0  0  0
 19 20  2  0  0  0  0
 20 21  1  0  0  0  0
 21 22  2  0  0  0  0
 22 17  1  0  0  0  0
 20 23  1  0  0  0  0
 23 24  1  0  0  0  0
 23 25  1  0  0  0  0
 23 26  1  0  0  0  0
 16 27  1  0  0  0  0
 27 28  2  0  0  0  0
 28 29  1  0  0  0  0
 29 30  2  0  0  0  0
 30 31  1  0  0  0  0
 31 32  2  0  0  0  0
 32 27  1  0  0  0  0
M  END
>  <Other ID>
EPL-BS0836

>  <sub series>
singles

>  <Source>
Epichem

>  <% growth M.myc at 100 uM>
83.02

>  <% growth M.myc at 25 uM>
87.64

>  <M. Myc IC50>


>  <M. Myc IC90>


>  <MIC50>


$$$$
Chemistry 28
  StarDrop          2D                              

 33 36  0  0  0  0  0  0  0  0999 V2000
    3.6384   -0.9011    0.0000 F   0  0  0  0  0  0  0  0  0  0  0  0
    2.5988   -1.5004    0.0000 C   0  0  0  0  0  0  0  0  0  0  0  0
    2.5984   -2.7004    0.0000 F   0  0  0  0  0  0  0  0  0  0  0  0
    3.6377   -2.1009    0.0000 F   0  0  0  0  0  0  0  0  0  0  0  0
    1.2990   -0.7500    0.0000 C   0  0  0  0  0  0  0  0  0  0  0  0
    1.2990    0.7500    0.0000 C   0  0  0  0  0  0  0  0  0  0  0  0
    0.0000    1.5000    0.0000 C   0  0  0  0  0  0  0  0  0  0  0  0
   -1.2990    0.7500    0.0000 C   0  0  0  0  0  0  0  0  0  0  0  0
   -1.2990   -0.7500    0.0000 C   0  0  0  0  0  0  0  0  0  0  0  0
    0.0000   -1.5000    0.0000 C   0  0  0  0  0  0  0  0  0  0  0  0
   -2.6003    1.4977    0.0000 N   0  0  0  0  0  0  0  0  0  0  0  0
   -2.6030    2.9985    0.0000 C   0  0  0  0  0  0  0  0  0  0  0  0
   -3.9023    3.7481    0.0000 C   0  0  0  0  0  0  0  0  0  0  0  0
   -3.9029    5.2481    0.0000 C   0  0  0  0  0  0  0  0  0  0  0  0
   -2.6041    5.9986    0.0000 N   0  0  0  0  0  0  0  0  0  0  0  0
   -1.3048    5.2491    0.0000 C   0  0  0  0  0  0  0  0  0  0  0  0
   -1.3042    3.7491    0.0000 C   0  0  0  0  0  0  0  0  0  0  0  0
   -2.6047    7.4994    0.0000 C   0  0  0  0  0  0  0  0  0  0  0  0
   -3.9028    8.2510    0.0000 C   0  0  0  0  0  0  0  0  0  0  0  0
   -3.9010    9.7510    0.0000 C   0  0  0  0  0  0  0  0  0  0  0  0
   -2.6011   10.4995    0.0000 C   0  0  0  0  0  0  0  0  0  0  0  0
   -1.3029    9.7479    0.0000 C   0  0  0  0  0  0  0  0  0  0  0  0
   -1.3048    8.2479    0.0000 N   0  0  0  0  0  0  0  0  0  0  0  0
   -2.5993   12.0003    0.0000 C   0  0  0  0  0  0  0  0  0  0  0  0
   -3.6374   12.6022    0.0000 F   0  0  0  0  0  0  0  0  0  0  0  0
   -1.5591   12.5987    0.0000 F   0  0  0  0  0  0  0  0  0  0  0  0
   -2.5972   13.2003    0.0000 F   0  0  0  0  0  0  0  0  0  0  0  0
   -3.8990    0.7455    0.0000 C   0  0  0  0  0  0  0  0  0  0  0  0
   -5.2007    1.4909    0.0000 C   0  0  0  0  0  0  0  0  0  0  0  0
   -6.4972    0.7364    0.0000 C   0  0  0  0  0  0  0  0  0  0  0  0
   -6.4920   -0.7636    0.0000 C   0  0  0  0  0  0  0  0  0  0  0  0
   -5.1903   -1.5091    0.0000 N   0  0  0  0  0  0  0  0  0  0  0  0
   -3.8939   -0.7546    0.0000 C   0  0  0  0  0  0  0  0  0  0  0  0
  1  2  1  0  0  0  0
  2  3  1  0  0  0  0
  2  4  1  0  0  0  0
  2  5  1  0  0  0  0
  5  6  2  0  0  0  0
  6  7  1  0  0  0  0
  7  8  2  0  0  0  0
  8  9  1  0  0  0  0
  9 10  2  0  0  0  0
 10  5  1  0  0  0  0
  8 11  1  0  0  0  0
 11 12  1  0  0  0  0
 12 13  1  0  0  0  0
 13 14  1  0  0  0  0
 14 15  1  0  0  0  0
 15 16  1  0  0  0  0
 16 17  1  0  0  0  0
 17 12  1  0  0  0  0
 15 18  1  0  0  0  0
 18 19  2  0  0  0  0
 19 20  1  0  0  0  0
 20 21  2  0  0  0  0
 21 22  1  0  0  0  0
 22 23  2  0  0  0  0
 23 18  1  0  0  0  0
 21 24  1  0  0  0  0
 24 25  1  0  0  0  0
 24 26  1  0  0  0  0
 24 27  1  0  0  0  0
 11 28  1  0  0  0  0
 28 29  2  0  0  0  0
 29 30  1  0  0  0  0
 30 31  2  0  0  0  0
 31 32  1  0  0  0  0
 32 33  2  0  0  0  0
 33 28  1  0  0  0  0
M  END
>  <Other ID>
EPL-BS0967

>  <sub series>
singles

>  <Source>
Epichem

>  <% growth M.myc at 100 uM>
44.37

>  <% growth M.myc at 25 uM>
46.07

>  <M. Myc IC50>


>  <M. Myc IC90>


>  <MIC50>


$$$$
Chemistry 36
  StarDrop          2D                              

 27 29  0  0  0  0  0  0  0  0999 V2000
    5.1877   -7.2109    0.0000 O   0  0  0  0  0  0  0  0  0  0  0  0
    5.1894   -6.0109    0.0000 C   0  0  0  0  0  0  0  0  0  0  0  0
    3.8912   -5.2578    0.0000 C   0  0  0  0  0  0  0  0  0  0  0  0
    3.8933   -3.7570    0.0000 O   0  0  0  0  0  0  0  0  0  0  0  0
    2.5951   -3.0039    0.0000 C   0  0  0  0  0  0  0  0  0  0  0  0
    2.5973   -1.5031    0.0000 C   0  0  0  0  0  0  0  0  0  0  0  0
    1.2990   -0.7500    0.0000 N   0  0  0  0  0  0  0  0  0  0  0  0
    1.2990    0.7500    0.0000 C   0  0  0  0  0  0  0  0  0  0  0  0
    0.0000    1.5000    0.0000 C   0  0  0  0  0  0  0  0  0  0  0  0
   -1.2990    0.7500    0.0000 N   0  0  0  0  0  0  0  0  0  0  0  0
   -1.2990   -0.7500    0.0000 C   0  0  0  0  0  0  0  0  0  0  0  0
    0.0000   -1.5000    0.0000 C   0  0  0  0  0  0  0  0  0  0  0  0
   -2.5998    1.4986    0.0000 C   0  0  0  0  0  0  0  0  0  0  0  0
   -3.8983    0.7460    0.0000 C   0  0  0  0  0  0  0  0  0  0  0  0
   -3.8989   -0.7540    0.0000 C   0  0  0  0  0  0  0  0  0  0  0  0
   -5.1982   -1.5035    0.0000 C   0  0  0  0  0  0  0  0  0  0  0  0
   -6.4970   -0.7530    0.0000 C   0  0  0  0  0  0  0  0  0  0  0  0
   -6.4964    0.7470    0.0000 C   0  0  0  0  0  0  0  0  0  0  0  0
   -5.1971    1.4965    0.0000 C   0  0  0  0  0  0  0  0  0  0  0  0
   -2.6013    2.9994    0.0000 C   0  0  0  0  0  0  0  0  0  0  0  0
   -1.3046    3.7535    0.0000 C   0  0  0  0  0  0  0  0  0  0  0  0
   -1.3092    5.2535    0.0000 C   0  0  0  0  0  0  0  0  0  0  0  0
   -2.6105    5.9995    0.0000 C   0  0  0  0  0  0  0  0  0  0  0  0
   -2.6142    7.1995    0.0000 Cl  0  0  0  0  0  0  0  0  0  0  0  0
   -3.9073    5.2455    0.0000 C   0  0  0  0  0  0  0  0  0  0  0  0
   -3.9027    3.7455    0.0000 C   0  0  0  0  0  0  0  0  0  0  0  0
    6.2297   -5.4127    0.0000 O   0  0  0  0  0  0  0  0  0  0  0  0
  1  2  2  0  0  0  0
  2  3  1  0  0  0  0
  3  4  1  0  0  0  0
  4  5  1  0  0  0  0
  5  6  1  0  0  0  0
  6  7  1  0  0  0  0
  7  8  1  0  0  0  0
  8  9  1  0  0  0  0
  9 10  1  0  0  0  0
 10 11  1  0  0  0  0
 11 12  1  0  0  0  0
 12  7  1  0  0  0  0
 10 13  1  0  0  0  0
 13 14  1  0  0  0  0
 14 15  2  0  0  0  0
 15 16  1  0  0  0  0
 16 17  2  0  0  0  0
 17 18  1  0  0  0  0
 18 19  2  0  0  0  0
 19 14  1  0  0  0  0
 13 20  1  0  0  0  0
 20 21  2  0  0  0  0
 21 22  1  0  0  0  0
 22 23  2  0  0  0  0
 23 24  1  0  0  0  0
 23 25  1  0  0  0  0
 25 26  2  0  0  0  0
 26 20  1  0  0  0  0
  2 27  1  0  0  0  0
M  END
>  <Other ID>
Cetirizine.HCl

>  <sub series>
singles

>  <Source>
Commercial

>  <% growth M.myc at 100 uM>
47.55

>  <% growth M.myc at 25 uM>


>  <M. Myc IC50>
9.96

>  <M. Myc IC90>
>16

>  <MIC50>
>16

$$$$
Chemistry 64
  StarDrop          2D                              

 19 20  0  0  0  0  0  0  0  0999 V2000
    4.9447   -5.8498    0.0000 C   0  0  0  0  0  0  0  0  0  0  0  0
    3.9048   -5.2510    0.0000 C   0  0  0  0  0  0  0  0  0  0  0  0
    3.9021   -3.7502    0.0000 C   0  0  0  0  0  0  0  0  0  0  0  0
    2.6015   -3.0012    0.0000 C   0  0  0  0  0  0  0  0  0  0  0  0
    2.5988   -1.5004    0.0000 C   0  0  0  0  0  0  0  0  0  0  0  0
    1.5601   -2.1013    0.0000 O   0  0  0  0  0  0  0  0  0  0  0  0
    1.2990   -0.7500    0.0000 C   0  0  0  0  0  0  0  0  0  0  0  0
    1.2990    0.7500    0.0000 C   0  0  0  0  0  0  0  0  0  0  0  0
    0.0000    1.5000    0.0000 C   0  0  0  0  0  0  0  0  0  0  0  0
   -1.2990    0.7500    0.0000 C   0  0  0  0  0  0  0  0  0  0  0  0
   -2.3383    1.3500    0.0000 Cl  0  0  0  0  0  0  0  0  0  0  0  0
   -1.2990   -0.7500    0.0000 C   0  0  0  0  0  0  0  0  0  0  0  0
    0.0000   -1.5000    0.0000 C   0  0  0  0  0  0  0  0  0  0  0  0
    3.8990   -0.7507    0.0000 C   0  0  0  0  0  0  0  0  0  0  0  0
    5.1977   -1.5013    0.0000 C   0  0  0  0  0  0  0  0  0  0  0  0
    6.4971   -0.7520    0.0000 N   0  0  0  0  0  0  0  0  0  0  0  0
    6.4979    0.7480    0.0000 C   0  0  0  0  0  0  0  0  0  0  0  0
    5.1992    1.4987    0.0000 N   0  0  0  0  0  0  0  0  0  0  0  0
    3.8998    0.7493    0.0000 C   0  0  0  0  0  0  0  0  0  0  0  0
  1  2  1  0  0  0  0
  2  3  1  0  0  0  0
  3  4  1  0  0  0  0
  4  5  1  0  0  0  0
  5  6  1  0  0  0  0
  5  7  1  0  0  0  0
  7  8  2  0  0  0  0
  8  9  1  0  0  0  0
  9 10  2  0  0  0  0
 10 11  1  0  0  0  0
 10 12  1  0  0  0  0
 12 13  2  0  0  0  0
 13  7  1  0  0  0  0
  5 14  1  0  0  0  0
 14 15  2  0  0  0  0
 15 16  1  0  0  0  0
 16 17  2  0  0  0  0
 17 18  1  0  0  0  0
 18 19  2  0  0  0  0
 19 14  1  0  0  0  0
M  END
>  <Other ID>
EPL-BS0114

>  <sub series>
singles

>  <Source>
Epichem

>  <% growth M.myc at 100 uM>
-5.767

>  <% growth M.myc at 25 uM>
-4.791

>  <M. Myc IC50>
>16

>  <M. Myc IC90>
>16

>  <MIC50>


$$$$
Chemistry 65
  StarDrop          2D                              

 20 22  0  0  0  0  0  0  0  0999 V2000
    3.1871   -2.1384    0.0000 O   0  0  0  0  0  0  0  0  0  0  0  0
    2.7771   -1.0106    0.0000 C   0  0  0  0  0  0  0  0  0  0  0  0
    1.2990   -0.7500    0.0000 C   0  0  0  0  0  0  0  0  0  0  0  0
    1.2990    0.7500    0.0000 C   0  0  0  0  0  0  0  0  0  0  0  0
    0.0000    1.5000    0.0000 C   0  0  0  0  0  0  0  0  0  0  0  0
   -1.2990    0.7500    0.0000 C   0  0  0  0  0  0  0  0  0  0  0  0
   -2.3383    1.3500    0.0000 Cl  0  0  0  0  0  0  0  0  0  0  0  0
   -1.2990   -0.7500    0.0000 C   0  0  0  0  0  0  0  0  0  0  0  0
    0.0000   -1.5000    0.0000 C   0  0  0  0  0  0  0  0  0  0  0  0
    3.7425    0.1385    0.0000 C   0  0  0  0  0  0  0  0  0  0  0  0
    5.2196   -0.1229    0.0000 C   0  0  0  0  0  0  0  0  0  0  0  0
    6.1845    1.0255    0.0000 C   0  0  0  0  0  0  0  0  0  0  0  0
    5.6723    2.4354    0.0000 C   0  0  0  0  0  0  0  0  0  0  0  0
    4.1953    2.6968    0.0000 N   0  0  0  0  0  0  0  0  0  0  0  0
    3.2304    1.5483    0.0000 C   0  0  0  0  0  0  0  0  0  0  0  0
    1.8122   -2.1601    0.0000 C   0  0  0  0  0  0  0  0  0  0  0  0
    2.1890   -3.5988    0.0000 C   0  0  0  0  0  0  0  0  0  0  0  0
    0.9168   -4.3935    0.0000 C   0  0  0  0  0  0  0  0  0  0  0  0
   -0.2321   -3.4291    0.0000 C   0  0  0  0  0  0  0  0  0  0  0  0
    0.3300   -2.0384    0.0000 S   0  0  0  0  0  0  0  0  0  0  0  0
  1  2  1  0  0  0  0
  2  3  1  0  0  0  0
  3  4  2  0  0  0  0
  4  5  1  0  0  0  0
  5  6  2  0  0  0  0
  6  7  1  0  0  0  0
  6  8  1  0  0  0  0
  8  9  2  0  0  0  0
  9  3  1  0  0  0  0
  2 10  1  0  0  0  0
 10 11  2  0  0  0  0
 11 12  1  0  0  0  0
 12 13  2  0  0  0  0
 13 14  1  0  0  0  0
 14 15  2  0  0  0  0
 15 10  1  0  0  0  0
  2 16  1  0  0  0  0
 16 17  2  0  0  0  0
 17 18  1  0  0  0  0
 18 19  2  0  0  0  0
 19 20  1  0  0  0  0
 20 16  1  0  0  0  0
M  END
>  <Other ID>
EPL-BS0115

>  <sub series>
singles

>  <Source>
Epichem

>  <% growth M.myc at 100 uM>
-8.648

>  <% growth M.myc at 25 uM>
-3.994

>  <M. Myc IC50>
4.63

>  <M. Myc IC90>
7.16

>  <MIC50>


$$$$
Chemistry 66
  StarDrop          2D                              

 22 24  0  0  0  0  0  0  0  0999 V2000
    3.1417    1.5281    0.0000 C   0  0  0  0  0  0  0  0  0  0  0  0
    4.0377    0.7299    0.0000 N   0  0  0  0  0  0  0  0  0  0  0  0
    5.5052    1.0408    0.0000 C   0  0  0  0  0  0  0  0  0  0  0  0
    6.2543   -0.2587    0.0000 C   0  0  0  0  0  0  0  0  0  0  0  0
    5.2499   -1.3728    0.0000 C   0  0  0  0  0  0  0  0  0  0  0  0
    3.8990   -0.7508    0.0000 C   0  0  0  0  0  0  0  0  0  0  0  0
    2.4208   -1.0105    0.0000 C   0  0  0  0  0  0  0  0  0  0  0  0
    2.0101   -2.1380    0.0000 O   0  0  0  0  0  0  0  0  0  0  0  0
    1.4561    0.1392    0.0000 C   0  0  0  0  0  0  0  0  0  0  0  0
    1.9691    1.5487    0.0000 C   0  0  0  0  0  0  0  0  0  0  0  0
    1.0050    2.6978    0.0000 C   0  0  0  0  0  0  0  0  0  0  0  0
   -0.4723    2.4373    0.0000 C   0  0  0  0  0  0  0  0  0  0  0  0
   -1.2436    3.3566    0.0000 Cl  0  0  0  0  0  0  0  0  0  0  0  0
   -0.9853    1.0278    0.0000 C   0  0  0  0  0  0  0  0  0  0  0  0
   -0.0211   -0.1213    0.0000 C   0  0  0  0  0  0  0  0  0  0  0  0
    3.3850   -2.1606    0.0000 C   0  0  0  0  0  0  0  0  0  0  0  0
    2.8713   -3.5699    0.0000 C   0  0  0  0  0  0  0  0  0  0  0  0
    3.8349   -4.7194    0.0000 C   0  0  0  0  0  0  0  0  0  0  0  0
    5.3122   -4.4596    0.0000 C   0  0  0  0  0  0  0  0  0  0  0  0
    6.0831   -5.3793    0.0000 Cl  0  0  0  0  0  0  0  0  0  0  0  0
    5.8259   -3.0503    0.0000 C   0  0  0  0  0  0  0  0  0  0  0  0
    4.8623   -1.9008    0.0000 C   0  0  0  0  0  0  0  0  0  0  0  0
  1  2  1  0  0  0  0
  2  3  1  0  0  0  0
  3  4  2  0  0  0  0
  4  5  1  0  0  0  0
  5  6  2  0  0  0  0
  6  2  1  0  0  0  0
  6  7  1  0  0  0  0
  7  8  1  0  0  0  0
  7  9  1  0  0  0  0
  9 10  2  0  0  0  0
 10 11  1  0  0  0  0
 11 12  2  0  0  0  0
 12 13  1  0  0  0  0
 12 14  1  0  0  0  0
 14 15  2  0  0  0  0
 15  9  1  0  0  0  0
  7 16  1  0  0  0  0
 16 17  2  0  0  0  0
 17 18  1  0  0  0  0
 18 19  2  0  0  0  0
 19 20  1  0  0  0  0
 19 21  1  0  0  0  0
 21 22  2  0  0  0  0
 22 16  1  0  0  0  0
M  END
>  <Other ID>
EPL-BS0118

>  <sub series>
singles

>  <Source>
Epichem

>  <% growth M.myc at 100 uM>
-5.671

>  <% growth M.myc at 25 uM>
-4.759

>  <M. Myc IC50>


>  <M. Myc IC90>


>  <MIC50>


$$$$
Chemistry 67
  StarDrop          2D                              

 31 34  0  0  0  0  0  0  0  0999 V2000
    1.9144   -5.0092    0.0000 O   0  0  0  0  0  0  0  0  0  0  0  0
    3.0421   -4.5989    0.0000 C   0  0  0  0  0  0  0  0  0  0  0  0
    3.3025   -3.1209    0.0000 C   0  0  0  0  0  0  0  0  0  0  0  0
    4.8025   -3.1206    0.0000 C   0  0  0  0  0  0  0  0  0  0  0  0
    5.5523   -1.8215    0.0000 C   0  0  0  0  0  0  0  0  0  0  0  0
    4.8021   -0.5225    0.0000 C   0  0  0  0  0  0  0  0  0  0  0  0
    3.3021   -0.5228    0.0000 C   0  0  0  0  0  0  0  0  0  0  0  0
    2.5523   -1.8219    0.0000 C   0  0  0  0  0  0  0  0  0  0  0  0
    5.5523    0.7773    0.0000 C   0  0  0  0  0  0  0  0  0  0  0  0
    6.7523    0.7783    0.0000 F   0  0  0  0  0  0  0  0  0  0  0  0
    4.9518    1.8163    0.0000 F   0  0  0  0  0  0  0  0  0  0  0  0
    6.1517    1.8169    0.0000 F   0  0  0  0  0  0  0  0  0  0  0  0
    4.1914   -5.5642    0.0000 C   0  0  0  0  0  0  0  0  0  0  0  0
    3.9302   -7.0413    0.0000 C   0  0  0  0  0  0  0  0  0  0  0  0
    5.0788   -8.0060    0.0000 C   0  0  0  0  0  0  0  0  0  0  0  0
    6.4886   -7.4936    0.0000 C   0  0  0  0  0  0  0  0  0  0  0  0
    6.7498   -6.0166    0.0000 C   0  0  0  0  0  0  0  0  0  0  0  0
    5.6012   -5.0518    0.0000 C   0  0  0  0  0  0  0  0  0  0  0  0
    7.6378   -8.4589    0.0000 C   0  0  0  0  0  0  0  0  0  0  0  0
    7.4297   -9.6407    0.0000 F   0  0  0  0  0  0  0  0  0  0  0  0
    8.7655   -8.0486    0.0000 F   0  0  0  0  0  0  0  0  0  0  0  0
    8.5571   -9.2302    0.0000 F   0  0  0  0  0  0  0  0  0  0  0  0
    1.8945   -3.6359    0.0000 C   0  0  0  0  0  0  0  0  0  0  0  0
    1.9991   -2.1396    0.0000 C   0  0  0  0  0  0  0  0  0  0  0  0
    0.6090   -1.5782    0.0000 C   0  0  0  0  0  0  0  0  0  0  0  0
    0.0959   -0.1687    0.0000 C   0  0  0  0  0  0  0  0  0  0  0  0
   -1.3813    0.0918    0.0000 C   0  0  0  0  0  0  0  0  0  0  0  0
   -2.3454   -1.0573    0.0000 C   0  0  0  0  0  0  0  0  0  0  0  0
   -1.8324   -2.4668    0.0000 C   0  0  0  0  0  0  0  0  0  0  0  0
   -0.3552   -2.7273    0.0000 C   0  0  0  0  0  0  0  0  0  0  0  0
    0.4390   -3.9988    0.0000 N   0  0  0  0  0  0  0  0  0  0  0  0
  1  2  1  0  0  0  0
  2  3  1  0  0  0  0
  3  4  2  0  0  0  0
  4  5  1  0  0  0  0
  5  6  2  0  0  0  0
  6  7  1  0  0  0  0
  7  8  2  0  0  0  0
  8  3  1  0  0  0  0
  6  9  1  0  0  0  0
  9 10  1  0  0  0  0
  9 11  1  0  0  0  0
  9 12  1  0  0  0  0
  2 13  1  0  0  0  0
 13 14  2  0  0  0  0
 14 15  1  0  0  0  0
 15 16  2  0  0  0  0
 16 17  1  0  0  0  0
 17 18  2  0  0  0  0
 18 13  1  0  0  0  0
 16 19  1  0  0  0  0
 19 20  1  0  0  0  0
 19 21  1  0  0  0  0
 19 22  1  0  0  0  0
  2 23  1  0  0  0  0
 23 24  2  0  0  0  0
 24 25  1  0  0  0  0
 25 26  2  0  0  0  0
 26 27  1  0  0  0  0
 27 28  2  0  0  0  0
 28 29  1  0  0  0  0
 29 30  2  0  0  0  0
 30 25  1  0  0  0  0
 30 31  1  0  0  0  0
 31 23  1  0  0  0  0
M  END
>  <Other ID>
EPL-BS0132

>  <sub series>
singles

>  <Source>
Epichem

>  <% growth M.myc at 100 uM>
-5.735

>  <% growth M.myc at 25 uM>
-4.753

>  <M. Myc IC50>
8.85

>  <M. Myc IC90>
14.19

>  <MIC50>


$$$$
Chemistry 68
  StarDrop          2D                              

 19 20  0  0  0  0  0  0  0  0999 V2000
   -1.0464   -3.5909    0.0000 C   0  0  0  0  0  0  0  0  0  0  0  0
   -0.0048   -2.9949    0.0000 O   0  0  0  0  0  0  0  0  0  0  0  0
    1.2925   -3.7494    0.0000 N   0  0  0  0  0  0  0  0  0  0  0  0
    2.5951   -3.0039    0.0000 C   0  0  0  0  0  0  0  0  0  0  0  0
    2.5973   -1.5031    0.0000 C   0  0  0  0  0  0  0  0  0  0  0  0
    1.2990   -0.7500    0.0000 C   0  0  0  0  0  0  0  0  0  0  0  0
    1.2990    0.7500    0.0000 C   0  0  0  0  0  0  0  0  0  0  0  0
    0.0000    1.5000    0.0000 C   0  0  0  0  0  0  0  0  0  0  0  0
   -1.2990    0.7500    0.0000 C   0  0  0  0  0  0  0  0  0  0  0  0
   -1.2990   -0.7500    0.0000 C   0  0  0  0  0  0  0  0  0  0  0  0
    0.0000   -1.5000    0.0000 C   0  0  0  0  0  0  0  0  0  0  0  0
    3.8933   -3.7570    0.0000 C   0  0  0  0  0  0  0  0  0  0  0  0
    3.8934   -5.2570    0.0000 C   0  0  0  0  0  0  0  0  0  0  0  0
    5.1924   -6.0070    0.0000 C   0  0  0  0  0  0  0  0  0  0  0  0
    6.4915   -5.2571    0.0000 C   0  0  0  0  0  0  0  0  0  0  0  0
    7.7928   -6.0048    0.0000 O   0  0  0  0  0  0  0  0  0  0  0  0
    8.8311   -5.4034    0.0000 C   0  0  0  0  0  0  0  0  0  0  0  0
    6.4915   -3.7571    0.0000 C   0  0  0  0  0  0  0  0  0  0  0  0
    5.1925   -3.0070    0.0000 C   0  0  0  0  0  0  0  0  0  0  0  0
  1  2  1  0  0  0  0
  2  3  1  0  0  0  0
  3  4  2  0  0  0  0
  4  5  1  0  0  0  0
  5  6  1  0  0  0  0
  6  7  2  0  0  0  0
  7  8  1  0  0  0  0
  8  9  2  0  0  0  0
  9 10  1  0  0  0  0
 10 11  2  0  0  0  0
 11  6  1  0  0  0  0
  4 12  1  0  0  0  0
 12 13  2  0  0  0  0
 13 14  1  0  0  0  0
 14 15  2  0  0  0  0
 15 16  1  0  0  0  0
 16 17  1  0  0  0  0
 15 18  1  0  0  0  0
 18 19  2  0  0  0  0
 19 12  1  0  0  0  0
M  END
>  <Other ID>
EPL-BS0150

>  <sub series>
singles

>  <Source>
Epichem

>  <% growth M.myc at 100 uM>
84.57

>  <% growth M.myc at 25 uM>
95.91

>  <M. Myc IC50>


>  <M. Myc IC90>


>  <MIC50>


$$$$
Chemistry 69
  StarDrop          2D                              

 18 19  0  0  0  0  0  0  0  0999 V2000
    2.5866    2.7016    0.0000 C   0  0  0  0  0  0  0  0  0  0  0  0
    2.5912    1.5016    0.0000 O   0  0  0  0  0  0  0  0  0  0  0  0
    3.8933    0.7554    0.0000 N   0  0  0  0  0  0  0  0  0  0  0  0
    3.8990   -0.7455    0.0000 C   0  0  0  0  0  0  0  0  0  0  0  0
    2.6003   -1.4977    0.0000 C   0  0  0  0  0  0  0  0  0  0  0  0
    1.2990   -0.7500    0.0000 C   0  0  0  0  0  0  0  0  0  0  0  0
    1.2990    0.7500    0.0000 C   0  0  0  0  0  0  0  0  0  0  0  0
    0.0000    1.5000    0.0000 C   0  0  0  0  0  0  0  0  0  0  0  0
   -1.2990    0.7500    0.0000 C   0  0  0  0  0  0  0  0  0  0  0  0
   -1.2990   -0.7500    0.0000 C   0  0  0  0  0  0  0  0  0  0  0  0
    0.0000   -1.5000    0.0000 C   0  0  0  0  0  0  0  0  0  0  0  0
    0.0000   -2.7000    0.0000 C   0  0  0  0  0  0  0  0  0  0  0  0
    5.2003   -1.4932    0.0000 C   0  0  0  0  0  0  0  0  0  0  0  0
    6.4994   -0.7432    0.0000 C   0  0  0  0  0  0  0  0  0  0  0  0
    7.7985   -1.4932    0.0000 C   0  0  0  0  0  0  0  0  0  0  0  0
    7.7985   -2.9932    0.0000 C   0  0  0  0  0  0  0  0  0  0  0  0
    6.4995   -3.7432    0.0000 N   0  0  0  0  0  0  0  0  0  0  0  0
    5.2004   -2.9933    0.0000 C   0  0  0  0  0  0  0  0  0  0  0  0
  1  2  1  0  0  0  0
  2  3  1  0  0  0  0
  3  4  2  0  0  0  0
  4  5  1  0  0  0  0
  5  6  1  0  0  0  0
  6  7  2  0  0  0  0
  7  8  1  0  0  0  0
  8  9  2  0  0  0  0
  9 10  1  0  0  0  0
 10 11  2  0  0  0  0
 11  6  1  0  0  0  0
 11 12  1  0  0  0  0
  4 13  1  0  0  0  0
 13 14  2  0  0  0  0
 14 15  1  0  0  0  0
 15 16  2  0  0  0  0
 16 17  1  0  0  0  0
 17 18  2  0  0  0  0
 18 13  1  0  0  0  0
M  END
>  <Other ID>
EPL-BS0170

>  <sub series>
singles

>  <Source>
Epichem

>  <% growth M.myc at 100 uM>
65.52

>  <% growth M.myc at 25 uM>
106

>  <M. Myc IC50>


>  <M. Myc IC90>


>  <MIC50>


$$$$
Chemistry 71
  StarDrop          2D                              

 19 20  0  0  0  0  0  0  0  0999 V2000
    6.4932    0.4455    0.0000 C   0  0  0  0  0  0  0  0  0  0  0  0
    6.4928   -0.7545    0.0000 C   0  0  0  0  0  0  0  0  0  0  0  0
    5.1933   -1.5053    0.0000 C   0  0  0  0  0  0  0  0  0  0  0  0
    5.1929   -3.0062    0.0000 C   0  0  0  0  0  0  0  0  0  0  0  0
    3.8933   -3.7570    0.0000 C   0  0  0  0  0  0  0  0  0  0  0  0
    2.5951   -3.0039    0.0000 N   0  0  0  0  0  0  0  0  0  0  0  0
    2.5973   -1.5031    0.0000 C   0  0  0  0  0  0  0  0  0  0  0  0
    1.2990   -0.7500    0.0000 C   0  0  0  0  0  0  0  0  0  0  0  0
    1.2990    0.7500    0.0000 C   0  0  0  0  0  0  0  0  0  0  0  0
    0.0000    1.5000    0.0000 C   0  0  0  0  0  0  0  0  0  0  0  0
   -1.2990    0.7500    0.0000 C   0  0  0  0  0  0  0  0  0  0  0  0
   -1.2990   -0.7500    0.0000 C   0  0  0  0  0  0  0  0  0  0  0  0
    0.0000   -1.5000    0.0000 C   0  0  0  0  0  0  0  0  0  0  0  0
    3.8912   -5.2578    0.0000 C   0  0  0  0  0  0  0  0  0  0  0  0
    5.1876   -6.0124    0.0000 C   0  0  0  0  0  0  0  0  0  0  0  0
    5.1824   -7.5124    0.0000 C   0  0  0  0  0  0  0  0  0  0  0  0
    3.8808   -8.2579    0.0000 C   0  0  0  0  0  0  0  0  0  0  0  0
    2.5844   -7.5034    0.0000 N   0  0  0  0  0  0  0  0  0  0  0  0
    2.5895   -6.0034    0.0000 C   0  0  0  0  0  0  0  0  0  0  0  0
  1  2  1  0  0  0  0
  2  3  1  0  0  0  0
  3  4  1  0  0  0  0
  4  5  1  0  0  0  0
  5  6  1  0  0  0  0
  6  7  1  0  0  0  0
  7  8  1  0  0  0  0
  8  9  1  0  0  0  0
  9 10  1  0  0  0  0
 10 11  1  0  0  0  0
 11 12  1  0  0  0  0
 12 13  1  0  0  0  0
 13  8  1  0  0  0  0
  5 14  1  0  0  0  0
 14 15  2  0  0  0  0
 15 16  1  0  0  0  0
 16 17  2  0  0  0  0
 17 18  1  0  0  0  0
 18 19  2  0  0  0  0
 19 14  1  0  0  0  0
M  END
>  <Other ID>
EPL-BS0196

>  <sub series>
singles

>  <Source>
Epichem

>  <% growth M.myc at 100 uM>
55.28

>  <% growth M.myc at 25 uM>
87.16

>  <M. Myc IC50>


>  <M. Myc IC90>


>  <MIC50>


$$$$
Chemistry 74
  StarDrop          2D                              

 23 24  0  0  0  0  0  0  0  0999 V2000
   -4.9447   -3.1285    0.0000 C   0  0  0  0  0  0  0  0  0  0  0  0
   -3.9073   -3.7317    0.0000 C   0  0  0  0  0  0  0  0  0  0  0  0
   -3.9115   -4.9317    0.0000 C   0  0  0  0  0  0  0  0  0  0  0  0
   -2.6048   -2.9861    0.0000 C   0  0  0  0  0  0  0  0  0  0  0  0
   -1.3074   -3.7406    0.0000 C   0  0  0  0  0  0  0  0  0  0  0  0
   -0.0048   -2.9950    0.0000 O   0  0  0  0  0  0  0  0  0  0  0  0
    1.2926   -3.7495    0.0000 N   0  0  0  0  0  0  0  0  0  0  0  0
    2.5951   -3.0039    0.0000 C   0  0  0  0  0  0  0  0  0  0  0  0
    3.8904   -3.7622    0.0000 C   0  0  0  0  0  0  0  0  0  0  0  0
    3.8822   -5.2630    0.0000 C   0  0  0  0  0  0  0  0  0  0  0  0
    5.1756   -6.0227    0.0000 C   0  0  0  0  0  0  0  0  0  0  0  0
    5.1644   -7.5227    0.0000 C   0  0  0  0  0  0  0  0  0  0  0  0
    3.8598   -8.2629    0.0000 C   0  0  0  0  0  0  0  0  0  0  0  0
    2.5664   -7.5033    0.0000 N   0  0  0  0  0  0  0  0  0  0  0  0
    2.5776   -6.0033    0.0000 C   0  0  0  0  0  0  0  0  0  0  0  0
    2.6034   -1.5031    0.0000 C   0  0  0  0  0  0  0  0  0  0  0  0
    1.3063   -0.7496    0.0000 C   0  0  0  0  0  0  0  0  0  0  0  0
    1.3103    0.7504    0.0000 C   0  0  0  0  0  0  0  0  0  0  0  0
    2.6114    1.4969    0.0000 C   0  0  0  0  0  0  0  0  0  0  0  0
    2.6146    2.6969    0.0000 Cl  0  0  0  0  0  0  0  0  0  0  0  0
    3.9084    0.7435    0.0000 C   0  0  0  0  0  0  0  0  0  0  0  0
    3.9044   -0.7565    0.0000 C   0  0  0  0  0  0  0  0  0  0  0  0
    4.9420   -1.3593    0.0000 Cl  0  0  0  0  0  0  0  0  0  0  0  0
  1  2  1  0  0  0  0
  2  3  1  0  0  0  0
  2  4  1  0  0  0  0
  4  5  1  0  0  0  0
  5  6  1  0  0  0  0
  6  7  1  0  0  0  0
  7  8  2  0  0  0  0
  8  9  1  0  0  0  0
  9 10  1  0  0  0  0
 10 11  2  0  0  0  0
 11 12  1  0  0  0  0
 12 13  2  0  0  0  0
 13 14  1  0  0  0  0
 14 15  2  0  0  0  0
 15 10  1  0  0  0  0
  8 16  1  0  0  0  0
 16 17  2  0  0  0  0
 17 18  1  0  0  0  0
 18 19  2  0  0  0  0
 19 20  1  0  0  0  0
 19 21  1  0  0  0  0
 21 22  2  0  0  0  0
 22 16  1  0  0  0  0
 22 23  1  0  0  0  0
M  END
>  <Other ID>
EPL-BS0269

>  <sub series>
singles

>  <Source>
Epichem

>  <% growth M.myc at 100 uM>
-2.854

>  <% growth M.myc at 25 uM>
52.82

>  <M. Myc IC50>


>  <M. Myc IC90>


>  <MIC50>


$$$$
Chemistry 76
  StarDrop          2D                              

 31 34  0  0  0  0  0  0  0  0999 V2000
    3.6387   -0.8963    0.0000 C   0  0  0  0  0  0  0  0  0  0  0  0
    2.6003   -1.4977    0.0000 O   0  0  0  0  0  0  0  0  0  0  0  0
    1.2990   -0.7500    0.0000 C   0  0  0  0  0  0  0  0  0  0  0  0
    1.2990    0.7500    0.0000 C   0  0  0  0  0  0  0  0  0  0  0  0
    0.0000    1.5000    0.0000 C   0  0  0  0  0  0  0  0  0  0  0  0
   -1.2990    0.7500    0.0000 C   0  0  0  0  0  0  0  0  0  0  0  0
   -1.2990   -0.7500    0.0000 C   0  0  0  0  0  0  0  0  0  0  0  0
    0.0000   -1.5000    0.0000 C   0  0  0  0  0  0  0  0  0  0  0  0
    0.0000   -3.0008    0.0000 N   0  0  0  0  0  0  0  0  0  0  0  0
   -1.2978   -3.7529    0.0000 C   0  0  0  0  0  0  0  0  0  0  0  0
   -1.2955   -5.2529    0.0000 C   0  0  0  0  0  0  0  0  0  0  0  0
    0.0048   -6.0009    0.0000 N   0  0  0  0  0  0  0  0  0  0  0  0
    1.3026   -5.2488    0.0000 C   0  0  0  0  0  0  0  0  0  0  0  0
    1.3002   -3.7488    0.0000 C   0  0  0  0  0  0  0  0  0  0  0  0
    0.0092   -7.5016    0.0000 C   0  0  0  0  0  0  0  0  0  0  0  0
    1.3114   -8.2478    0.0000 C   0  0  0  0  0  0  0  0  0  0  0  0
    2.6096   -7.4963    0.0000 C   0  0  0  0  0  0  0  0  0  0  0  0
    3.9095   -8.2447    0.0000 C   0  0  0  0  0  0  0  0  0  0  0  0
    3.9114   -9.7447    0.0000 C   0  0  0  0  0  0  0  0  0  0  0  0
    2.6132  -10.4963    0.0000 C   0  0  0  0  0  0  0  0  0  0  0  0
    1.3133   -9.7479    0.0000 C   0  0  0  0  0  0  0  0  0  0  0  0
    5.2120  -10.4935    0.0000 C   0  0  0  0  0  0  0  0  0  0  0  0
    6.2509   -9.8929    0.0000 F   0  0  0  0  0  0  0  0  0  0  0  0
    5.2131  -11.6935    0.0000 F   0  0  0  0  0  0  0  0  0  0  0  0
    6.2517  -11.0927    0.0000 F   0  0  0  0  0  0  0  0  0  0  0  0
   -1.2886   -8.2554    0.0000 C   0  0  0  0  0  0  0  0  0  0  0  0
   -2.5912   -7.5116    0.0000 C   0  0  0  0  0  0  0  0  0  0  0  0
   -3.8867   -8.2676    0.0000 N   0  0  0  0  0  0  0  0  0  0  0  0
   -3.8797   -9.7676    0.0000 C   0  0  0  0  0  0  0  0  0  0  0  0
   -2.5772  -10.5115    0.0000 C   0  0  0  0  0  0  0  0  0  0  0  0
   -1.2817   -9.7555    0.0000 N   0  0  0  0  0  0  0  0  0  0  0  0
  1  2  1  0  0  0  0
  2  3  1  0  0  0  0
  3  4  2  0  0  0  0
  4  5  1  0  0  0  0
  5  6  2  0  0  0  0
  6  7  1  0  0  0  0
  7  8  2  0  0  0  0
  8  3  1  0  0  0  0
  8  9  1  0  0  0  0
  9 10  1  0  0  0  0
 10 11  1  0  0  0  0
 11 12  1  0  0  0  0
 12 13  1  0  0  0  0
 13 14  1  0  0  0  0
 14  9  1  0  0  0  0
 12 15  1  0  0  0  0
 15 16  1  0  0  0  0
 16 17  2  0  0  0  0
 17 18  1  0  0  0  0
 18 19  2  0  0  0  0
 19 20  1  0  0  0  0
 20 21  2  0  0  0  0
 21 16  1  0  0  0  0
 19 22  1  0  0  0  0
 22 23  1  0  0  0  0
 22 24  1  0  0  0  0
 22 25  1  0  0  0  0
 15 26  1  0  0  0  0
 26 27  2  0  0  0  0
 27 28  1  0  0  0  0
 28 29  2  0  0  0  0
 29 30  1  0  0  0  0
 30 31  2  0  0  0  0
 31 26  1  0  0  0  0
M  END
>  <Other ID>
EPL-BS0277

>  <sub series>
singles

>  <Source>
Epichem

>  <% growth M.myc at 100 uM>
91.32

>  <% growth M.myc at 25 uM>
85.17

>  <M. Myc IC50>


>  <M. Myc IC90>


>  <MIC50>


$$$$
Chemistry 77
  StarDrop          2D                              

 23 25  0  0  0  0  0  0  0  0999 V2000
    2.3383   -1.3500    0.0000 Cl  0  0  0  0  0  0  0  0  0  0  0  0
    1.2990   -0.7500    0.0000 C   0  0  0  0  0  0  0  0  0  0  0  0
    1.2990    0.7500    0.0000 C   0  0  0  0  0  0  0  0  0  0  0  0
    0.0000    1.5000    0.0000 C   0  0  0  0  0  0  0  0  0  0  0  0
   -1.2990    0.7500    0.0000 C   0  0  0  0  0  0  0  0  0  0  0  0
   -1.2990   -0.7500    0.0000 C   0  0  0  0  0  0  0  0  0  0  0  0
    0.0000   -1.5000    0.0000 C   0  0  0  0  0  0  0  0  0  0  0  0
   -2.5988    1.5004    0.0000 C   0  0  0  0  0  0  0  0  0  0  0  0
   -2.5998    3.0012    0.0000 C   0  0  0  0  0  0  0  0  0  0  0  0
   -1.3010    3.7533    0.0000 C   0  0  0  0  0  0  0  0  0  0  0  0
   -1.2997    5.2533    0.0000 C   0  0  0  0  0  0  0  0  0  0  0  0
   -0.0001    6.0023    0.0000 C   0  0  0  0  0  0  0  0  0  0  0  0
    1.2983    5.2513    0.0000 C   0  0  0  0  0  0  0  0  0  0  0  0
    1.2972    3.7513    0.0000 C   0  0  0  0  0  0  0  0  0  0  0  0
   -0.0024    3.0023    0.0000 C   0  0  0  0  0  0  0  0  0  0  0  0
   -3.8982    0.7496    0.0000 C   0  0  0  0  0  0  0  0  0  0  0  0
   -4.9373    0.1493    0.0000 N   0  0  0  0  0  0  0  0  0  0  0  0
   -3.8988    2.2502    0.0000 C   0  0  0  0  0  0  0  0  0  0  0  0
   -5.1975    1.4995    0.0000 C   0  0  0  0  0  0  0  0  0  0  0  0
   -6.4969    2.2489    0.0000 N   0  0  0  0  0  0  0  0  0  0  0  0
   -6.4976    3.7489    0.0000 C   0  0  0  0  0  0  0  0  0  0  0  0
   -5.1990    4.4995    0.0000 C   0  0  0  0  0  0  0  0  0  0  0  0
   -3.8996    3.7502    0.0000 N   0  0  0  0  0  0  0  0  0  0  0  0
  1  2  1  0  0  0  0
  2  3  2  0  0  0  0
  3  4  1  0  0  0  0
  4  5  2  0  0  0  0
  5  6  1  0  0  0  0
  6  7  2  0  0  0  0
  7  2  1  0  0  0  0
  5  8  1  0  0  0  0
  8  9  1  0  0  0  0
  9 10  1  0  0  0  0
 10 11  1  0  0  0  0
 11 12  1  0  0  0  0
 12 13  1  0  0  0  0
 13 14  1  0  0  0  0
 14 15  1  0  0  0  0
 15 10  1  0  0  0  0
  8 16  1  0  0  0  0
 16 17  3  0  0  0  0
  8 18  1  0  0  0  0
 18 19  2  0  0  0  0
 19 20  1  0  0  0  0
 20 21  2  0  0  0  0
 21 22  1  0  0  0  0
 22 23  2  0  0  0  0
 23 18  1  0  0  0  0
M  END
>  <Other ID>
EPL-BS0282

>  <sub series>
singles

>  <Source>
Epichem

>  <% growth M.myc at 100 uM>
70.52

>  <% growth M.myc at 25 uM>
81.37

>  <M. Myc IC50>


>  <M. Myc IC90>


>  <MIC50>


$$$$
Chemistry 78
  StarDrop          2D                              

 25 26  0  0  0  0  0  0  0  0999 V2000
    5.1887   -7.2113    0.0000 C   0  0  0  0  0  0  0  0  0  0  0  0
    5.1901   -6.0113    0.0000 C   0  0  0  0  0  0  0  0  0  0  0  0
    6.2302   -5.4128    0.0000 C   0  0  0  0  0  0  0  0  0  0  0  0
    3.8917   -5.2586    0.0000 C   0  0  0  0  0  0  0  0  0  0  0  0
    3.8934   -3.7577    0.0000 S   0  0  0  0  0  0  0  0  0  0  0  0
    4.9335   -3.1592    0.0000 O   0  0  0  0  0  0  0  0  0  0  0  0
    4.9318   -4.3591    0.0000 O   0  0  0  0  0  0  0  0  0  0  0  0
    2.5949   -3.0050    0.0000 N   0  0  0  0  0  0  0  0  0  0  0  0
    2.5966   -1.5042    0.0000 C   0  0  0  0  0  0  0  0  0  0  0  0
    1.2990   -0.7500    0.0000 C   0  0  0  0  0  0  0  0  0  0  0  0
    1.2990    0.7500    0.0000 C   0  0  0  0  0  0  0  0  0  0  0  0
    0.0000    1.5000    0.0000 C   0  0  0  0  0  0  0  0  0  0  0  0
   -1.2990    0.7500    0.0000 C   0  0  0  0  0  0  0  0  0  0  0  0
   -1.2990   -0.7500    0.0000 C   0  0  0  0  0  0  0  0  0  0  0  0
    0.0000   -1.5000    0.0000 C   0  0  0  0  0  0  0  0  0  0  0  0
   -2.5988    1.5004    0.0000 C   0  0  0  0  0  0  0  0  0  0  0  0
   -2.5996    2.7004    0.0000 F   0  0  0  0  0  0  0  0  0  0  0  0
   -3.6378    0.9001    0.0000 F   0  0  0  0  0  0  0  0  0  0  0  0
   -3.6383    2.0999    0.0000 F   0  0  0  0  0  0  0  0  0  0  0  0
    3.8990   -0.7582    0.0000 C   0  0  0  0  0  0  0  0  0  0  0  0
    3.9042    0.7419    0.0000 C   0  0  0  0  0  0  0  0  0  0  0  0
    5.2058    1.4875    0.0000 N   0  0  0  0  0  0  0  0  0  0  0  0
    6.5023    0.7331    0.0000 C   0  0  0  0  0  0  0  0  0  0  0  0
    6.4972   -0.7669    0.0000 C   0  0  0  0  0  0  0  0  0  0  0  0
    5.1956   -1.5125    0.0000 N   0  0  0  0  0  0  0  0  0  0  0  0
  1  2  1  0  0  0  0
  2  3  1  0  0  0  0
  2  4  1  0  0  0  0
  4  5  1  0  0  0  0
  5  6  2  0  0  0  0
  5  7  2  0  0  0  0
  5  8  1  0  0  0  0
  8  9  1  0  0  0  0
  9 10  1  0  0  0  0
 10 11  2  0  0  0  0
 11 12  1  0  0  0  0
 12 13  2  0  0  0  0
 13 14  1  0  0  0  0
 14 15  2  0  0  0  0
 15 10  1  0  0  0  0
 13 16  1  0  0  0  0
 16 17  1  0  0  0  0
 16 18  1  0  0  0  0
 16 19  1  0  0  0  0
  9 20  1  0  0  0  0
 20 21  2  0  0  0  0
 21 22  1  0  0  0  0
 22 23  2  0  0  0  0
 23 24  1  0  0  0  0
 24 25  2  0  0  0  0
 25 20  1  0  0  0  0
M  END
>  <Other ID>
EPL-BS0310

>  <sub series>
singles

>  <Source>
Epichem

>  <% growth M.myc at 100 uM>
66.74

>  <% growth M.myc at 25 uM>
85.17

>  <M. Myc IC50>


>  <M. Myc IC90>


>  <MIC50>


$$$$
Chemistry 79
  StarDrop          2D                              

 30 32  0  0  0  0  0  0  0  0999 V2000
    3.6384   -0.9011    0.0000 F   0  0  0  0  0  0  0  0  0  0  0  0
    2.5988   -1.5004    0.0000 C   0  0  0  0  0  0  0  0  0  0  0  0
    2.5984   -2.7004    0.0000 F   0  0  0  0  0  0  0  0  0  0  0  0
    3.6377   -2.1009    0.0000 F   0  0  0  0  0  0  0  0  0  0  0  0
    1.2990   -0.7500    0.0000 C   0  0  0  0  0  0  0  0  0  0  0  0
    1.2990    0.7500    0.0000 C   0  0  0  0  0  0  0  0  0  0  0  0
    0.0000    1.5000    0.0000 C   0  0  0  0  0  0  0  0  0  0  0  0
   -1.2990    0.7500    0.0000 C   0  0  0  0  0  0  0  0  0  0  0  0
   -1.2990   -0.7500    0.0000 C   0  0  0  0  0  0  0  0  0  0  0  0
    0.0000   -1.5000    0.0000 C   0  0  0  0  0  0  0  0  0  0  0  0
   -2.6003    1.4977    0.0000 C   0  0  0  0  0  0  0  0  0  0  0  0
   -3.8990    0.7455    0.0000 N   0  0  0  0  0  0  0  0  0  0  0  0
   -5.2003    1.4932    0.0000 C   0  0  0  0  0  0  0  0  0  0  0  0
   -5.2024    2.6932    0.0000 O   0  0  0  0  0  0  0  0  0  0  0  0
   -6.4990    0.7409    0.0000 C   0  0  0  0  0  0  0  0  0  0  0  0
   -7.8007    1.4864    0.0000 C   0  0  0  0  0  0  0  0  0  0  0  0
   -9.0971    0.7319    0.0000 C   0  0  0  0  0  0  0  0  0  0  0  0
   -9.0919   -0.7681    0.0000 C   0  0  0  0  0  0  0  0  0  0  0  0
   -7.7903   -1.5136    0.0000 C   0  0  0  0  0  0  0  0  0  0  0  0
   -6.4939   -0.7591    0.0000 C   0  0  0  0  0  0  0  0  0  0  0  0
  -10.3891   -1.5230    0.0000 C   0  0  0  0  0  0  0  0  0  0  0  0
  -11.4308   -0.9273    0.0000 F   0  0  0  0  0  0  0  0  0  0  0  0
  -10.3845   -2.7230    0.0000 F   0  0  0  0  0  0  0  0  0  0  0  0
  -11.4259   -2.1271    0.0000 F   0  0  0  0  0  0  0  0  0  0  0  0
   -2.6030    2.9985    0.0000 C   0  0  0  0  0  0  0  0  0  0  0  0
   -3.9023    3.7481    0.0000 C   0  0  0  0  0  0  0  0  0  0  0  0
   -3.9029    5.2481    0.0000 N   0  0  0  0  0  0  0  0  0  0  0  0
   -2.6041    5.9986    0.0000 C   0  0  0  0  0  0  0  0  0  0  0  0
   -1.3048    5.2491    0.0000 C   0  0  0  0  0  0  0  0  0  0  0  0
   -1.3042    3.7491    0.0000 N   0  0  0  0  0  0  0  0  0  0  0  0
  1  2  1  0  0  0  0
  2  3  1  0  0  0  0
  2  4  1  0  0  0  0
  2  5  1  0  0  0  0
  5  6  2  0  0  0  0
  6  7  1  0  0  0  0
  7  8  2  0  0  0  0
  8  9  1  0  0  0  0
  9 10  2  0  0  0  0
 10  5  1  0  0  0  0
  8 11  1  0  0  0  0
 11 12  1  0  0  0  0
 12 13  1  0  0  0  0
 13 14  2  0  0  0  0
 13 15  1  0  0  0  0
 15 16  2  0  0  0  0
 16 17  1  0  0  0  0
 17 18  2  0  0  0  0
 18 19  1  0  0  0  0
 19 20  2  0  0  0  0
 20 15  1  0  0  0  0
 18 21  1  0  0  0  0
 21 22  1  0  0  0  0
 21 23  1  0  0  0  0
 21 24  1  0  0  0  0
 11 25  1  0  0  0  0
 25 26  2  0  0  0  0
 26 27  1  0  0  0  0
 27 28  2  0  0  0  0
 28 29  1  0  0  0  0
 29 30  2  0  0  0  0
 30 25  1  0  0  0  0
M  END
>  <Other ID>
EPL-BS0317

>  <sub series>
singles

>  <Source>
Epichem

>  <% growth M.myc at 100 uM>
78.97

>  <% growth M.myc at 25 uM>
81.43

>  <M. Myc IC50>


>  <M. Myc IC90>


>  <MIC50>


$$$$
Chemistry 85
  StarDrop          2D                              

 25 27  0  0  0  0  0  0  0  0999 V2000
    1.5548   -3.6021    0.0000 C   0  0  0  0  0  0  0  0  0  0  0  0
    2.5951   -3.0039    0.0000 C   0  0  0  0  0  0  0  0  0  0  0  0
    3.6331   -3.6060    0.0000 O   0  0  0  0  0  0  0  0  0  0  0  0
    2.5973   -1.5031    0.0000 N   0  0  0  0  0  0  0  0  0  0  0  0
    1.2990   -0.7500    0.0000 C   0  0  0  0  0  0  0  0  0  0  0  0
    1.2990    0.7500    0.0000 C   0  0  0  0  0  0  0  0  0  0  0  0
    0.0000    1.5000    0.0000 C   0  0  0  0  0  0  0  0  0  0  0  0
   -1.2990    0.7500    0.0000 N   0  0  0  0  0  0  0  0  0  0  0  0
   -1.2990   -0.7500    0.0000 C   0  0  0  0  0  0  0  0  0  0  0  0
    0.0000   -1.5000    0.0000 C   0  0  0  0  0  0  0  0  0  0  0  0
   -2.5998    1.4986    0.0000 C   0  0  0  0  0  0  0  0  0  0  0  0
   -3.8983    0.7460    0.0000 C   0  0  0  0  0  0  0  0  0  0  0  0
   -3.8989   -0.7540    0.0000 C   0  0  0  0  0  0  0  0  0  0  0  0
   -5.1982   -1.5035    0.0000 N   0  0  0  0  0  0  0  0  0  0  0  0
   -6.4970   -0.7530    0.0000 C   0  0  0  0  0  0  0  0  0  0  0  0
   -6.4964    0.7470    0.0000 C   0  0  0  0  0  0  0  0  0  0  0  0
   -5.1971    1.4965    0.0000 N   0  0  0  0  0  0  0  0  0  0  0  0
   -2.6013    2.9994    0.0000 C   0  0  0  0  0  0  0  0  0  0  0  0
   -3.9027    3.7455    0.0000 C   0  0  0  0  0  0  0  0  0  0  0  0
   -3.9073    5.2455    0.0000 C   0  0  0  0  0  0  0  0  0  0  0  0
   -2.6105    5.9995    0.0000 C   0  0  0  0  0  0  0  0  0  0  0  0
   -2.6142    7.1995    0.0000 F   0  0  0  0  0  0  0  0  0  0  0  0
   -1.3092    5.2535    0.0000 C   0  0  0  0  0  0  0  0  0  0  0  0
   -1.3046    3.7535    0.0000 C   0  0  0  0  0  0  0  0  0  0  0  0
   -0.2635    3.1567    0.0000 F   0  0  0  0  0  0  0  0  0  0  0  0
  1  2  1  0  0  0  0
  2  3  2  0  0  0  0
  2  4  1  0  0  0  0
  4  5  1  0  0  0  0
  5  6  1  0  0  0  0
  6  7  1  0  0  0  0
  7  8  1  0  0  0  0
  8  9  1  0  0  0  0
  9 10  1  0  0  0  0
 10  5  1  0  0  0  0
  8 11  1  0  0  0  0
 11 12  1  0  0  0  0
 12 13  2  0  0  0  0
 13 14  1  0  0  0  0
 14 15  2  0  0  0  0
 15 16  1  0  0  0  0
 16 17  2  0  0  0  0
 17 12  1  0  0  0  0
 11 18  1  0  0  0  0
 18 19  2  0  0  0  0
 19 20  1  0  0  0  0
 20 21  2  0  0  0  0
 21 22  1  0  0  0  0
 21 23  1  0  0  0  0
 23 24  2  0  0  0  0
 24 18  1  0  0  0  0
 24 25  1  0  0  0  0
M  END
>  <Other ID>
EPL-BS0388

>  <sub series>
singles

>  <Source>
Epichem

>  <% growth M.myc at 100 uM>
82.33

>  <% growth M.myc at 25 uM>
87.31

>  <M. Myc IC50>


>  <M. Myc IC90>


>  <MIC50>


$$$$
Chemistry 86
  StarDrop          2D                              

 36 39  0  0  0  0  0  0  0  0999 V2000
    3.6384   -0.9011    0.0000 F   0  0  0  0  0  0  0  0  0  0  0  0
    2.5988   -1.5004    0.0000 C   0  0  0  0  0  0  0  0  0  0  0  0
    2.5984   -2.7004    0.0000 F   0  0  0  0  0  0  0  0  0  0  0  0
    3.6377   -2.1009    0.0000 F   0  0  0  0  0  0  0  0  0  0  0  0
    1.2990   -0.7500    0.0000 C   0  0  0  0  0  0  0  0  0  0  0  0
    1.2990    0.7500    0.0000 C   0  0  0  0  0  0  0  0  0  0  0  0
    0.0000    1.5000    0.0000 C   0  0  0  0  0  0  0  0  0  0  0  0
   -1.2990    0.7500    0.0000 C   0  0  0  0  0  0  0  0  0  0  0  0
   -1.2990   -0.7500    0.0000 C   0  0  0  0  0  0  0  0  0  0  0  0
    0.0000   -1.5000    0.0000 C   0  0  0  0  0  0  0  0  0  0  0  0
   -2.6003    1.4977    0.0000 C   0  0  0  0  0  0  0  0  0  0  0  0
   -2.6030    2.9985    0.0000 N   0  0  0  0  0  0  0  0  0  0  0  0
   -3.9023    3.7481    0.0000 C   0  0  0  0  0  0  0  0  0  0  0  0
   -3.9029    5.2481    0.0000 C   0  0  0  0  0  0  0  0  0  0  0  0
   -2.6041    5.9986    0.0000 C   0  0  0  0  0  0  0  0  0  0  0  0
   -1.3048    5.2491    0.0000 C   0  0  0  0  0  0  0  0  0  0  0  0
   -1.3042    3.7491    0.0000 C   0  0  0  0  0  0  0  0  0  0  0  0
   -2.6016    7.4994    0.0000 N   0  0  0  0  0  0  0  0  0  0  0  0
   -1.3011    8.2485    0.0000 C   0  0  0  0  0  0  0  0  0  0  0  0
   -0.2627    7.6471    0.0000 O   0  0  0  0  0  0  0  0  0  0  0  0
   -1.2986    9.7493    0.0000 C   0  0  0  0  0  0  0  0  0  0  0  0
    0.0002   10.4999    0.0000 C   0  0  0  0  0  0  0  0  0  0  0  0
   -0.0003   11.9999    0.0000 C   0  0  0  0  0  0  0  0  0  0  0  0
   -1.2996   12.7494    0.0000 C   0  0  0  0  0  0  0  0  0  0  0  0
   -2.5984   11.9989    0.0000 C   0  0  0  0  0  0  0  0  0  0  0  0
   -2.5979   10.4989    0.0000 C   0  0  0  0  0  0  0  0  0  0  0  0
   -1.3002   14.2502    0.0000 C   0  0  0  0  0  0  0  0  0  0  0  0
   -0.2615   14.8513    0.0000 F   0  0  0  0  0  0  0  0  0  0  0  0
   -2.3398   14.8495    0.0000 F   0  0  0  0  0  0  0  0  0  0  0  0
   -1.3012   15.4502    0.0000 F   0  0  0  0  0  0  0  0  0  0  0  0
   -3.8990    0.7455    0.0000 C   0  0  0  0  0  0  0  0  0  0  0  0
   -5.2007    1.4909    0.0000 C   0  0  0  0  0  0  0  0  0  0  0  0
   -6.4972    0.7364    0.0000 N   0  0  0  0  0  0  0  0  0  0  0  0
   -6.4920   -0.7636    0.0000 C   0  0  0  0  0  0  0  0  0  0  0  0
   -5.1903   -1.5091    0.0000 C   0  0  0  0  0  0  0  0  0  0  0  0
   -3.8939   -0.7546    0.0000 N   0  0  0  0  0  0  0  0  0  0  0  0
  1  2  1  0  0  0  0
  2  3  1  0  0  0  0
  2  4  1  0  0  0  0
  2  5  1  0  0  0  0
  5  6  2  0  0  0  0
  6  7  1  0  0  0  0
  7  8  2  0  0  0  0
  8  9  1  0  0  0  0
  9 10  2  0  0  0  0
 10  5  1  0  0  0  0
  8 11  1  0  0  0  0
 11 12  1  0  0  0  0
 12 13  1  0  0  0  0
 13 14  1  0  0  0  0
 14 15  1  0  0  0  0
 15 16  1  0  0  0  0
 16 17  1  0  0  0  0
 17 12  1  0  0  0  0
 15 18  1  0  0  0  0
 18 19  1  0  0  0  0
 19 20  2  0  0  0  0
 19 21  1  0  0  0  0
 21 22  2  0  0  0  0
 22 23  1  0  0  0  0
 23 24  2  0  0  0  0
 24 25  1  0  0  0  0
 25 26  2  0  0  0  0
 26 21  1  0  0  0  0
 24 27  1  0  0  0  0
 27 28  1  0  0  0  0
 27 29  1  0  0  0  0
 27 30  1  0  0  0  0
 11 31  1  0  0  0  0
 31 32  2  0  0  0  0
 32 33  1  0  0  0  0
 33 34  2  0  0  0  0
 34 35  1  0  0  0  0
 35 36  2  0  0  0  0
 36 31  1  0  0  0  0
M  END
>  <Other ID>
EPL-BS0431

>  <sub series>
singles

>  <Source>
Epichem

>  <% growth M.myc at 100 uM>
96.89

>  <% growth M.myc at 25 uM>
82.45

>  <M. Myc IC50>


>  <M. Myc IC90>


>  <MIC50>


$$$$
Chemistry 87
  StarDrop          2D                              

 36 39  0  0  0  0  0  0  0  0999 V2000
    3.6384   -0.9011    0.0000 F   0  0  0  0  0  0  0  0  0  0  0  0
    2.5988   -1.5004    0.0000 C   0  0  0  0  0  0  0  0  0  0  0  0
    2.5984   -2.7004    0.0000 F   0  0  0  0  0  0  0  0  0  0  0  0
    3.6377   -2.1009    0.0000 F   0  0  0  0  0  0  0  0  0  0  0  0
    1.2990   -0.7500    0.0000 C   0  0  0  0  0  0  0  0  0  0  0  0
    1.2990    0.7500    0.0000 C   0  0  0  0  0  0  0  0  0  0  0  0
    0.0000    1.5000    0.0000 C   0  0  0  0  0  0  0  0  0  0  0  0
   -1.2990    0.7500    0.0000 C   0  0  0  0  0  0  0  0  0  0  0  0
   -1.2990   -0.7500    0.0000 C   0  0  0  0  0  0  0  0  0  0  0  0
    0.0000   -1.5000    0.0000 C   0  0  0  0  0  0  0  0  0  0  0  0
   -2.6003    1.4977    0.0000 C   0  0  0  0  0  0  0  0  0  0  0  0
   -3.8990    0.7455    0.0000 N   0  0  0  0  0  0  0  0  0  0  0  0
   -5.2003    1.4932    0.0000 C   0  0  0  0  0  0  0  0  0  0  0  0
   -6.4994    0.7432    0.0000 C   0  0  0  0  0  0  0  0  0  0  0  0
   -7.7985    1.4932    0.0000 C   0  0  0  0  0  0  0  0  0  0  0  0
   -7.7985    2.9932    0.0000 N   0  0  0  0  0  0  0  0  0  0  0  0
   -6.4995    3.7432    0.0000 C   0  0  0  0  0  0  0  0  0  0  0  0
   -5.2004    2.9933    0.0000 C   0  0  0  0  0  0  0  0  0  0  0  0
   -9.0967    3.7462    0.0000 C   0  0  0  0  0  0  0  0  0  0  0  0
  -10.1370    3.1480    0.0000 O   0  0  0  0  0  0  0  0  0  0  0  0
   -9.0947    5.2471    0.0000 C   0  0  0  0  0  0  0  0  0  0  0  0
  -10.3911    6.0016    0.0000 C   0  0  0  0  0  0  0  0  0  0  0  0
  -10.3859    7.5016    0.0000 C   0  0  0  0  0  0  0  0  0  0  0  0
   -9.0843    8.2471    0.0000 C   0  0  0  0  0  0  0  0  0  0  0  0
   -7.7879    7.4927    0.0000 C   0  0  0  0  0  0  0  0  0  0  0  0
   -7.7930    5.9927    0.0000 C   0  0  0  0  0  0  0  0  0  0  0  0
   -9.0792    9.7480    0.0000 C   0  0  0  0  0  0  0  0  0  0  0  0
  -10.1160   10.3522    0.0000 F   0  0  0  0  0  0  0  0  0  0  0  0
   -8.0377   10.3441    0.0000 F   0  0  0  0  0  0  0  0  0  0  0  0
   -9.0745   10.9479    0.0000 F   0  0  0  0  0  0  0  0  0  0  0  0
   -2.6030    2.9985    0.0000 C   0  0  0  0  0  0  0  0  0  0  0  0
   -3.9023    3.7481    0.0000 C   0  0  0  0  0  0  0  0  0  0  0  0
   -3.9029    5.2481    0.0000 N   0  0  0  0  0  0  0  0  0  0  0  0
   -2.6041    5.9986    0.0000 C   0  0  0  0  0  0  0  0  0  0  0  0
   -1.3048    5.2491    0.0000 C   0  0  0  0  0  0  0  0  0  0  0  0
   -1.3042    3.7491    0.0000 N   0  0  0  0  0  0  0  0  0  0  0  0
  1  2  1  0  0  0  0
  2  3  1  0  0  0  0
  2  4  1  0  0  0  0
  2  5  1  0  0  0  0
  5  6  2  0  0  0  0
  6  7  1  0  0  0  0
  7  8  2  0  0  0  0
  8  9  1  0  0  0  0
  9 10  2  0  0  0  0
 10  5  1  0  0  0  0
  8 11  1  0  0  0  0
 11 12  1  0  0  0  0
 12 13  1  0  0  0  0
 13 14  1  0  0  0  0
 14 15  1  0  0  0  0
 15 16  1  0  0  0  0
 16 17  1  0  0  0  0
 17 18  1  0  0  0  0
 18 13  1  0  0  0  0
 16 19  1  0  0  0  0
 19 20  2  0  0  0  0
 19 21  1  0  0  0  0
 21 22  2  0  0  0  0
 22 23  1  0  0  0  0
 23 24  2  0  0  0  0
 24 25  1  0  0  0  0
 25 26  2  0  0  0  0
 26 21  1  0  0  0  0
 24 27  1  0  0  0  0
 27 28  1  0  0  0  0
 27 29  1  0  0  0  0
 27 30  1  0  0  0  0
 11 31  1  0  0  0  0
 31 32  2  0  0  0  0
 32 33  1  0  0  0  0
 33 34  2  0  0  0  0
 34 35  1  0  0  0  0
 35 36  2  0  0  0  0
 36 31  1  0  0  0  0
M  END
>  <Other ID>
EPL-BS0449

>  <sub series>
singles

>  <Source>
Epichem

>  <% growth M.myc at 100 uM>
67.25

>  <% growth M.myc at 25 uM>
79.5

>  <M. Myc IC50>


>  <M. Myc IC90>


>  <MIC50>


$$$$
Chemistry 104
  StarDrop          2D                              

 32 35  0  0  0  0  0  0  0  0999 V2000
    0.2409   -3.4780    0.0000 C   0  0  0  0  0  0  0  0  0  0  0  0
    1.3786   -3.8595    0.0000 C   0  0  0  0  0  0  0  0  0  0  0  0
    1.8372   -5.2877    0.0000 O   0  0  0  0  0  0  0  0  0  0  0  0
    3.3372   -5.2929    0.0000 N   0  0  0  0  0  0  0  0  0  0  0  0
    3.8056   -3.8679    0.0000 C   0  0  0  0  0  0  0  0  0  0  0  0
    4.9460   -3.4943    0.0000 C   0  0  0  0  0  0  0  0  0  0  0  0
    2.5951   -3.0039    0.0000 C   0  0  0  0  0  0  0  0  0  0  0  0
    2.5973   -1.5031    0.0000 C   0  0  0  0  0  0  0  0  0  0  0  0
    3.6375   -0.9049    0.0000 O   0  0  0  0  0  0  0  0  0  0  0  0
    1.2990   -0.7500    0.0000 N   0  0  0  0  0  0  0  0  0  0  0  0
    1.2990    0.7500    0.0000 C   0  0  0  0  0  0  0  0  0  0  0  0
    0.0000    1.5000    0.0000 C   0  0  0  0  0  0  0  0  0  0  0  0
   -1.2990    0.7500    0.0000 C   0  0  0  0  0  0  0  0  0  0  0  0
   -1.2990   -0.7500    0.0000 C   0  0  0  0  0  0  0  0  0  0  0  0
    0.0000   -1.5000    0.0000 C   0  0  0  0  0  0  0  0  0  0  0  0
   -2.6003    1.4977    0.0000 N   0  0  0  0  0  0  0  0  0  0  0  0
   -3.8990    0.7455    0.0000 C   0  0  0  0  0  0  0  0  0  0  0  0
   -5.2003    1.4932    0.0000 C   0  0  0  0  0  0  0  0  0  0  0  0
   -6.4994    0.7432    0.0000 C   0  0  0  0  0  0  0  0  0  0  0  0
   -7.7985    1.4932    0.0000 C   0  0  0  0  0  0  0  0  0  0  0  0
   -7.7985    2.9932    0.0000 C   0  0  0  0  0  0  0  0  0  0  0  0
   -6.4995    3.7432    0.0000 C   0  0  0  0  0  0  0  0  0  0  0  0
   -5.2004    2.9933    0.0000 C   0  0  0  0  0  0  0  0  0  0  0  0
   -9.0983    3.7436    0.0000 C   0  0  0  0  0  0  0  0  0  0  0  0
  -10.1379    3.1442    0.0000 F   0  0  0  0  0  0  0  0  0  0  0  0
   -9.0979    4.9436    0.0000 F   0  0  0  0  0  0  0  0  0  0  0  0
  -10.1372    4.3440    0.0000 F   0  0  0  0  0  0  0  0  0  0  0  0
   -3.8964   -0.7553    0.0000 C   0  0  0  0  0  0  0  0  0  0  0  0
   -5.1073   -1.6189    0.0000 C   0  0  0  0  0  0  0  0  0  0  0  0
   -4.6393   -3.0440    0.0000 N   0  0  0  0  0  0  0  0  0  0  0  0
   -3.1393   -3.0394    0.0000 C   0  0  0  0  0  0  0  0  0  0  0  0
   -2.6802   -1.6114    0.0000 S   0  0  0  0  0  0  0  0  0  0  0  0
  1  2  1  0  0  0  0
  2  3  1  0  0  0  0
  3  4  1  0  0  0  0
  4  5  2  0  0  0  0
  5  6  1  0  0  0  0
  5  7  1  0  0  0  0
  7  2  2  0  0  0  0
  7  8  1  0  0  0  0
  8  9  2  0  0  0  0
  8 10  1  0  0  0  0
 10 11  1  0  0  0  0
 11 12  1  0  0  0  0
 12 13  1  0  0  0  0
 13 14  1  0  0  0  0
 14 15  1  0  0  0  0
 15 10  1  0  0  0  0
 13 16  1  0  0  0  0
 16 17  1  0  0  0  0
 17 18  1  0  0  0  0
 18 19  2  0  0  0  0
 19 20  1  0  0  0  0
 20 21  2  0  0  0  0
 21 22  1  0  0  0  0
 22 23  2  0  0  0  0
 23 18  1  0  0  0  0
 21 24  1  0  0  0  0
 24 25  1  0  0  0  0
 24 26  1  0  0  0  0
 24 27  1  0  0  0  0
 17 28  1  0  0  0  0
 28 29  2  0  0  0  0
 29 30  1  0  0  0  0
 30 31  2  0  0  0  0
 31 32  1  0  0  0  0
 32 28  1  0  0  0  0
M  END
>  <Other ID>
EPL-BS0810

>  <sub series>
singles

>  <Source>
Epichem

>  <% growth M.myc at 100 uM>
85.63

>  <% growth M.myc at 25 uM>
88.97

>  <M. Myc IC50>


>  <M. Myc IC90>


>  <MIC50>


$$$$
Chemistry 114
  StarDrop          2D                              

 33 36  0  0  0  0  0  0  0  0999 V2000
    3.6384   -0.9011    0.0000 F   0  0  0  0  0  0  0  0  0  0  0  0
    2.5988   -1.5004    0.0000 C   0  0  0  0  0  0  0  0  0  0  0  0
    2.5984   -2.7004    0.0000 F   0  0  0  0  0  0  0  0  0  0  0  0
    3.6377   -2.1009    0.0000 F   0  0  0  0  0  0  0  0  0  0  0  0
    1.2990   -0.7500    0.0000 C   0  0  0  0  0  0  0  0  0  0  0  0
    1.2990    0.7500    0.0000 C   0  0  0  0  0  0  0  0  0  0  0  0
    0.0000    1.5000    0.0000 C   0  0  0  0  0  0  0  0  0  0  0  0
   -1.2990    0.7500    0.0000 C   0  0  0  0  0  0  0  0  0  0  0  0
   -1.2990   -0.7500    0.0000 C   0  0  0  0  0  0  0  0  0  0  0  0
    0.0000   -1.5000    0.0000 C   0  0  0  0  0  0  0  0  0  0  0  0
   -2.6003    1.4977    0.0000 N   0  0  0  0  0  0  0  0  0  0  0  0
   -2.6030    2.9985    0.0000 C   0  0  0  0  0  0  0  0  0  0  0  0
   -3.9023    3.7481    0.0000 C   0  0  0  0  0  0  0  0  0  0  0  0
   -3.9029    5.2481    0.0000 C   0  0  0  0  0  0  0  0  0  0  0  0
   -2.6041    5.9986    0.0000 N   0  0  0  0  0  0  0  0  0  0  0  0
   -1.3048    5.2491    0.0000 C   0  0  0  0  0  0  0  0  0  0  0  0
   -1.3042    3.7491    0.0000 C   0  0  0  0  0  0  0  0  0  0  0  0
   -2.6047    7.4994    0.0000 C   0  0  0  0  0  0  0  0  0  0  0  0
   -3.9028    8.2510    0.0000 C   0  0  0  0  0  0  0  0  0  0  0  0
   -3.9010    9.7510    0.0000 C   0  0  0  0  0  0  0  0  0  0  0  0
   -2.6011   10.4995    0.0000 C   0  0  0  0  0  0  0  0  0  0  0  0
   -1.3029    9.7479    0.0000 N   0  0  0  0  0  0  0  0  0  0  0  0
   -1.3048    8.2479    0.0000 C   0  0  0  0  0  0  0  0  0  0  0  0
   -2.5993   12.0003    0.0000 C   0  0  0  0  0  0  0  0  0  0  0  0
   -3.6374   12.6022    0.0000 F   0  0  0  0  0  0  0  0  0  0  0  0
   -1.5591   12.5987    0.0000 F   0  0  0  0  0  0  0  0  0  0  0  0
   -2.5972   13.2003    0.0000 F   0  0  0  0  0  0  0  0  0  0  0  0
   -3.8990    0.7455    0.0000 C   0  0  0  0  0  0  0  0  0  0  0  0
   -5.2007    1.4909    0.0000 C   0  0  0  0  0  0  0  0  0  0  0  0
   -6.4972    0.7364    0.0000 N   0  0  0  0  0  0  0  0  0  0  0  0
   -6.4920   -0.7636    0.0000 C   0  0  0  0  0  0  0  0  0  0  0  0
   -5.1903   -1.5091    0.0000 N   0  0  0  0  0  0  0  0  0  0  0  0
   -3.8939   -0.7546    0.0000 C   0  0  0  0  0  0  0  0  0  0  0  0
  1  2  1  0  0  0  0
  2  3  1  0  0  0  0
  2  4  1  0  0  0  0
  2  5  1  0  0  0  0
  5  6  2  0  0  0  0
  6  7  1  0  0  0  0
  7  8  2  0  0  0  0
  8  9  1  0  0  0  0
  9 10  2  0  0  0  0
 10  5  1  0  0  0  0
  8 11  1  0  0  0  0
 11 12  1  0  0  0  0
 12 13  1  0  0  0  0
 13 14  1  0  0  0  0
 14 15  1  0  0  0  0
 15 16  1  0  0  0  0
 16 17  1  0  0  0  0
 17 12  1  0  0  0  0
 15 18  1  0  0  0  0
 18 19  2  0  0  0  0
 19 20  1  0  0  0  0
 20 21  2  0  0  0  0
 21 22  1  0  0  0  0
 22 23  2  0  0  0  0
 23 18  1  0  0  0  0
 21 24  1  0  0  0  0
 24 25  1  0  0  0  0
 24 26  1  0  0  0  0
 24 27  1  0  0  0  0
 11 28  1  0  0  0  0
 28 29  2  0  0  0  0
 29 30  1  0  0  0  0
 30 31  2  0  0  0  0
 31 32  1  0  0  0  0
 32 33  2  0  0  0  0
 33 28  1  0  0  0  0
M  END
>  <Other ID>
EPL-BS1080

>  <sub series>
singles

>  <Source>
Epichem

>  <% growth M.myc at 100 uM>
64.79

>  <% growth M.myc at 25 uM>
38.88

>  <M. Myc IC50>


>  <M. Myc IC90>


>  <MIC50>


$$$$
Chemistry 117
  StarDrop          2D                              

 33 36  0  0  0  0  0  0  0  0999 V2000
    3.6384   -0.9011    0.0000 F   0  0  0  0  0  0  0  0  0  0  0  0
    2.5988   -1.5004    0.0000 C   0  0  0  0  0  0  0  0  0  0  0  0
    2.5984   -2.7004    0.0000 F   0  0  0  0  0  0  0  0  0  0  0  0
    3.6377   -2.1009    0.0000 F   0  0  0  0  0  0  0  0  0  0  0  0
    1.2990   -0.7500    0.0000 C   0  0  0  0  0  0  0  0  0  0  0  0
    1.2990    0.7500    0.0000 C   0  0  0  0  0  0  0  0  0  0  0  0
    0.0000    1.5000    0.0000 C   0  0  0  0  0  0  0  0  0  0  0  0
   -1.2990    0.7500    0.0000 C   0  0  0  0  0  0  0  0  0  0  0  0
   -1.2990   -0.7500    0.0000 C   0  0  0  0  0  0  0  0  0  0  0  0
    0.0000   -1.5000    0.0000 C   0  0  0  0  0  0  0  0  0  0  0  0
   -0.0031   -3.0008    0.0000 C   0  0  0  0  0  0  0  0  0  0  0  0
   -1.3039   -3.7494    0.0000 N   0  0  0  0  0  0  0  0  0  0  0  0
   -1.3092   -5.2494    0.0000 C   0  0  0  0  0  0  0  0  0  0  0  0
   -2.6108   -5.9949    0.0000 C   0  0  0  0  0  0  0  0  0  0  0  0
   -3.9072   -5.2404    0.0000 N   0  0  0  0  0  0  0  0  0  0  0  0
   -3.9020   -3.7404    0.0000 C   0  0  0  0  0  0  0  0  0  0  0  0
   -2.6004   -2.9949    0.0000 C   0  0  0  0  0  0  0  0  0  0  0  0
   -5.2111   -5.9837    0.0000 C   0  0  0  0  0  0  0  0  0  0  0  0
   -5.2173   -7.1837    0.0000 O   0  0  0  0  0  0  0  0  0  0  0  0
   -6.5072   -5.2269    0.0000 C   0  0  0  0  0  0  0  0  0  0  0  0
   -7.8111   -5.9702    0.0000 C   0  0  0  0  0  0  0  0  0  0  0  0
   -9.1075   -5.2157    0.0000 C   0  0  0  0  0  0  0  0  0  0  0  0
  -10.4092   -5.9612    0.0000 C   0  0  0  0  0  0  0  0  0  0  0  0
  -10.4144   -7.4612    0.0000 C   0  0  0  0  0  0  0  0  0  0  0  0
  -11.4557   -8.0576    0.0000 Cl  0  0  0  0  0  0  0  0  0  0  0  0
   -9.1180   -8.2157    0.0000 C   0  0  0  0  0  0  0  0  0  0  0  0
   -7.8163   -7.4702    0.0000 C   0  0  0  0  0  0  0  0  0  0  0  0
   -6.4994   -3.7262    0.0000 C   0  0  0  0  0  0  0  0  0  0  0  0
   -7.7935   -2.9676    0.0000 C   0  0  0  0  0  0  0  0  0  0  0  0
   -7.7836   -1.4676    0.0000 C   0  0  0  0  0  0  0  0  0  0  0  0
   -6.4797   -0.7261    0.0000 C   0  0  0  0  0  0  0  0  0  0  0  0
   -5.1856   -1.4846    0.0000 N   0  0  0  0  0  0  0  0  0  0  0  0
   -5.1955   -2.9846    0.0000 C   0  0  0  0  0  0  0  0  0  0  0  0
  1  2  1  0  0  0  0
  2  3  1  0  0  0  0
  2  4  1  0  0  0  0
  2  5  1  0  0  0  0
  5  6  2  0  0  0  0
  6  7  1  0  0  0  0
  7  8  2  0  0  0  0
  8  9  1  0  0  0  0
  9 10  2  0  0  0  0
 10  5  1  0  0  0  0
 10 11  1  0  0  0  0
 11 12  1  0  0  0  0
 12 13  1  0  0  0  0
 13 14  1  0  0  0  0
 14 15  1  0  0  0  0
 15 16  1  0  0  0  0
 16 17  1  0  0  0  0
 17 12  1  0  0  0  0
 15 18  1  0  0  0  0
 18 19  2  0  0  0  0
 18 20  1  0  0  0  0
 20 21  1  0  0  0  0
 21 22  2  0  0  0  0
 22 23  1  0  0  0  0
 23 24  2  0  0  0  0
 24 25  1  0  0  0  0
 24 26  1  0  0  0  0
 26 27  2  0  0  0  0
 27 21  1  0  0  0  0
 20 28  1  0  0  0  0
 28 29  2  0  0  0  0
 29 30  1  0  0  0  0
 30 31  2  0  0  0  0
 31 32  1  0  0  0  0
 32 33  2  0  0  0  0
 33 28  1  0  0  0  0
M  END
>  <Other ID>
EPL-BS1392

>  <sub series>
singles

>  <Source>
Epichem

>  <% growth M.myc at 100 uM>
92.92

>  <% growth M.myc at 25 uM>
53.55

>  <M. Myc IC50>


>  <M. Myc IC90>


>  <MIC50>


$$$$
Chemistry 118
  StarDrop          2D                              

 29 32  0  0  1  0  0  0  0  0999 V2000
    2.3383   -1.3500    0.0000 Cl  0  0  0  0  0  0  0  0  0  0  0  0
    1.2990   -0.7500    0.0000 C   0  0  0  0  0  0  0  0  0  0  0  0
    1.2990    0.7500    0.0000 C   0  0  0  0  0  0  0  0  0  0  0  0
    0.0000    1.5000    0.0000 C   0  0  0  0  0  0  0  0  0  0  0  0
   -1.2990    0.7500    0.0000 C   0  0  0  0  0  0  0  0  0  0  0  0
   -1.2990   -0.7500    0.0000 C   0  0  0  0  0  0  0  0  0  0  0  0
    0.0000   -1.5000    0.0000 C   0  0  0  0  0  0  0  0  0  0  0  0
   -2.6003    1.4977    0.0000 C   0  0  0  0  0  0  0  0  0  0  0  0
   -3.8990    0.7455    0.0000 C   0  0  0  0  0  0  0  0  0  0  0  0
   -3.8969   -0.4545    0.0000 O   0  0  0  0  0  0  0  0  0  0  0  0
   -5.2003    1.4932    0.0000 N   0  0  0  0  0  0  0  0  0  0  0  0
   -6.5517    0.8722    0.0000 C   0  0  2  0  0  0  0  0  0  0  0  0
   -7.5554    1.9869    0.0000 C   0  0  0  0  0  0  0  0  0  0  0  0
   -6.8054    3.2859    0.0000 O   0  0  0  0  0  0  0  0  0  0  0  0
   -5.3382    2.9741    0.0000 C   0  0  0  0  0  0  0  0  0  0  0  0
   -4.4417    3.7717    0.0000 O   0  0  0  0  0  0  0  0  0  0  0  0
   -6.8550   -0.5976    0.0000 C   0  0  0  0  0  0  0  0  0  0  0  0
   -5.8200   -1.6761    0.0000 C   0  0  0  0  0  0  0  0  0  0  0  0
   -6.2388   -3.1164    0.0000 C   0  0  0  0  0  0  0  0  0  0  0  0
   -7.6956   -3.4739    0.0000 C   0  0  0  0  0  0  0  0  0  0  0  0
   -8.7336   -2.3910    0.0000 C   0  0  0  0  0  0  0  0  0  0  0  0
   -8.3147   -0.9507    0.0000 C   0  0  0  0  0  0  0  0  0  0  0  0
   -2.6030    2.9985    0.0000 C   0  0  0  0  0  0  0  0  0  0  0  0
   -3.9023    3.7481    0.0000 C   0  0  0  0  0  0  0  0  0  0  0  0
   -3.9029    5.2481    0.0000 C   0  0  0  0  0  0  0  0  0  0  0  0
   -2.6041    5.9986    0.0000 C   0  0  0  0  0  0  0  0  0  0  0  0
   -1.3048    5.2491    0.0000 N   0  0  0  0  0  0  0  0  0  0  0  0
   -1.3042    3.7491    0.0000 C   0  0  0  0  0  0  0  0  0  0  0  0
   -7.4314    0.6337    0.0000 H   0  0  0  0  0  0  0  0  0  0  0  0
  1  2  1  0  0  0  0
  2  3  2  0  0  0  0
  3  4  1  0  0  0  0
  4  5  2  0  0  0  0
  5  6  1  0  0  0  0
  6  7  2  0  0  0  0
  7  2  1  0  0  0  0
  5  8  1  0  0  0  0
  8  9  1  0  0  0  0
  9 10  2  0  0  0  0
  9 11  1  0  0  0  0
 11 12  1  0  0  0  0
 12 13  1  0  0  0  0
 13 14  1  0  0  0  0
 14 15  1  0  0  0  0
 15 11  1  0  0  0  0
 15 16  2  0  0  0  0
 12 17  1  1  0  0  0
 17 18  2  0  0  0  0
 18 19  1  0  0  0  0
 19 20  2  0  0  0  0
 20 21  1  0  0  0  0
 21 22  2  0  0  0  0
 22 17  1  0  0  0  0
  8 23  1  0  0  0  0
 23 24  2  0  0  0  0
 24 25  1  0  0  0  0
 25 26  2  0  0  0  0
 26 27  1  0  0  0  0
 27 28  2  0  0  0  0
 28 23  1  0  0  0  0
 12 29  1  0  0  0  0
M  END
>  <Other ID>
EPL-BS1439

>  <sub series>
singles

>  <Source>
Epichem

>  <% growth M.myc at 100 uM>
85.79

>  <% growth M.myc at 25 uM>
87.97

>  <M. Myc IC50>


>  <M. Myc IC90>


>  <MIC50>


$$$$
Chemistry 123
  StarDrop          2D                              

 29 31  0  0  0  0  0  0  0  0999 V2000
    2.5984   -2.7004    0.0000 C   0  0  0  0  0  0  0  0  0  0  0  0
    2.5988   -1.5004    0.0000 S   0  0  0  0  0  0  0  0  0  0  0  0
    3.6384   -0.9011    0.0000 O   0  0  0  0  0  0  0  0  0  0  0  0
    3.6377   -2.1009    0.0000 O   0  0  0  0  0  0  0  0  0  0  0  0
    1.2990   -0.7500    0.0000 N   0  0  0  0  0  0  0  0  0  0  0  0
    1.2990    0.7500    0.0000 C   0  0  0  0  0  0  0  0  0  0  0  0
    0.0000    1.5000    0.0000 C   0  0  0  0  0  0  0  0  0  0  0  0
   -1.2990    0.7500    0.0000 C   0  0  0  0  0  0  0  0  0  0  0  0
   -2.6003    1.4977    0.0000 C   0  0  0  0  0  0  0  0  0  0  0  0
   -3.8990    0.7455    0.0000 N   0  0  0  0  0  0  0  0  0  0  0  0
   -5.2003    1.4932    0.0000 C   0  0  0  0  0  0  0  0  0  0  0  0
   -6.4990    0.7409    0.0000 C   0  0  0  0  0  0  0  0  0  0  0  0
   -7.8007    1.4864    0.0000 C   0  0  0  0  0  0  0  0  0  0  0  0
   -9.0971    0.7319    0.0000 C   0  0  0  0  0  0  0  0  0  0  0  0
   -9.0919   -0.7681    0.0000 C   0  0  0  0  0  0  0  0  0  0  0  0
   -7.7903   -1.5136    0.0000 C   0  0  0  0  0  0  0  0  0  0  0  0
   -6.4939   -0.7591    0.0000 C   0  0  0  0  0  0  0  0  0  0  0  0
  -10.3891   -1.5230    0.0000 C   0  0  0  0  0  0  0  0  0  0  0  0
  -11.4308   -0.9273    0.0000 F   0  0  0  0  0  0  0  0  0  0  0  0
  -10.3845   -2.7230    0.0000 F   0  0  0  0  0  0  0  0  0  0  0  0
  -11.4259   -2.1271    0.0000 F   0  0  0  0  0  0  0  0  0  0  0  0
   -5.2029    2.9939    0.0000 C   0  0  0  0  0  0  0  0  0  0  0  0
   -6.5023    3.7436    0.0000 C   0  0  0  0  0  0  0  0  0  0  0  0
   -6.5029    5.2436    0.0000 N   0  0  0  0  0  0  0  0  0  0  0  0
   -5.2041    5.9941    0.0000 C   0  0  0  0  0  0  0  0  0  0  0  0
   -3.9048    5.2446    0.0000 C   0  0  0  0  0  0  0  0  0  0  0  0
   -3.9042    3.7446    0.0000 N   0  0  0  0  0  0  0  0  0  0  0  0
   -1.2990   -0.7500    0.0000 C   0  0  0  0  0  0  0  0  0  0  0  0
    0.0000   -1.5000    0.0000 C   0  0  0  0  0  0  0  0  0  0  0  0
  1  2  1  0  0  0  0
  2  3  2  0  0  0  0
  2  4  2  0  0  0  0
  2  5  1  0  0  0  0
  5  6  1  0  0  0  0
  6  7  1  0  0  0  0
  7  8  1  0  0  0  0
  8  9  1  0  0  0  0
  9 10  1  0  0  0  0
 10 11  1  0  0  0  0
 11 12  1  0  0  0  0
 12 13  2  0  0  0  0
 13 14  1  0  0  0  0
 14 15  2  0  0  0  0
 15 16  1  0  0  0  0
 16 17  2  0  0  0  0
 17 12  1  0  0  0  0
 15 18  1  0  0  0  0
 18 19  1  0  0  0  0
 18 20  1  0  0  0  0
 18 21  1  0  0  0  0
 11 22  1  0  0  0  0
 22 23  2  0  0  0  0
 23 24  1  0  0  0  0
 24 25  2  0  0  0  0
 25 26  1  0  0  0  0
 26 27  2  0  0  0  0
 27 22  1  0  0  0  0
  8 28  1  0  0  0  0
 28 29  1  0  0  0  0
 29  5  1  0  0  0  0
M  END
>  <Other ID>
EPL-BS333

>  <sub series>
singles

>  <Source>
Epichem

>  <% growth M.myc at 100 uM>
81.24

>  <% growth M.myc at 25 uM>
81.05

>  <M. Myc IC50>


>  <M. Myc IC90>


>  <MIC50>


$$$$
Chemistry 22
  StarDrop          2D                              

 29 32  0  0  0  0  0  0  0  0999 V2000
    1.5548   -3.6021    0.0000 O   0  0  0  0  0  0  0  0  0  0  0  0
    2.5951   -3.0039    0.0000 C   0  0  0  0  0  0  0  0  0  0  0  0
    2.5973   -1.5031    0.0000 N   0  0  0  0  0  0  0  0  0  0  0  0
    1.2990   -0.7500    0.0000 C   0  0  0  0  0  0  0  0  0  0  0  0
    1.2990    0.7500    0.0000 C   0  0  0  0  0  0  0  0  0  0  0  0
    0.0000    1.5000    0.0000 C   0  0  0  0  0  0  0  0  0  0  0  0
   -1.2990    0.7500    0.0000 N   0  0  0  0  0  0  0  0  0  0  0  0
   -1.2990   -0.7500    0.0000 C   0  0  0  0  0  0  0  0  0  0  0  0
    0.0000   -1.5000    0.0000 C   0  0  0  0  0  0  0  0  0  0  0  0
   -2.5998    1.4986    0.0000 C   0  0  0  0  0  0  0  0  0  0  0  0
   -3.8983    0.7460    0.0000 C   0  0  0  0  0  0  0  0  0  0  0  0
   -3.8989   -0.7540    0.0000 C   0  0  0  0  0  0  0  0  0  0  0  0
   -5.1982   -1.5035    0.0000 C   0  0  0  0  0  0  0  0  0  0  0  0
   -6.4970   -0.7530    0.0000 C   0  0  0  0  0  0  0  0  0  0  0  0
   -6.4964    0.7470    0.0000 C   0  0  0  0  0  0  0  0  0  0  0  0
   -5.1971    1.4965    0.0000 C   0  0  0  0  0  0  0  0  0  0  0  0
   -7.7970   -1.5030    0.0000 C   0  0  0  0  0  0  0  0  0  0  0  0
   -8.8364   -2.1026    0.0000 N   0  0  0  0  0  0  0  0  0  0  0  0
   -2.6013    2.9994    0.0000 C   0  0  0  0  0  0  0  0  0  0  0  0
   -1.3046    3.7535    0.0000 C   0  0  0  0  0  0  0  0  0  0  0  0
   -1.3092    5.2535    0.0000 C   0  0  0  0  0  0  0  0  0  0  0  0
   -2.6105    5.9995    0.0000 C   0  0  0  0  0  0  0  0  0  0  0  0
   -3.9073    5.2455    0.0000 N   0  0  0  0  0  0  0  0  0  0  0  0
   -3.9027    3.7455    0.0000 C   0  0  0  0  0  0  0  0  0  0  0  0
    3.8933   -3.7570    0.0000 C   0  0  0  0  0  0  0  0  0  0  0  0
    4.0312   -5.2378    0.0000 O   0  0  0  0  0  0  0  0  0  0  0  0
    5.4984   -5.5497    0.0000 N   0  0  0  0  0  0  0  0  0  0  0  0
    6.2484   -4.2507    0.0000 C   0  0  0  0  0  0  0  0  0  0  0  0
    5.2447   -3.1359    0.0000 C   0  0  0  0  0  0  0  0  0  0  0  0
  1  2  2  0  0  0  0
  2  3  1  0  0  0  0
  3  4  1  0  0  0  0
  4  5  1  0  0  0  0
  5  6  1  0  0  0  0
  6  7  1  0  0  0  0
  7  8  1  0  0  0  0
  8  9  1  0  0  0  0
  9  4  1  0  0  0  0
  7 10  1  0  0  0  0
 10 11  1  0  0  0  0
 11 12  2  0  0  0  0
 12 13  1  0  0  0  0
 13 14  2  0  0  0  0
 14 15  1  0  0  0  0
 15 16  2  0  0  0  0
 16 11  1  0  0  0  0
 14 17  1  0  0  0  0
 17 18  3  0  0  0  0
 10 19  1  0  0  0  0
 19 20  2  0  0  0  0
 20 21  1  0  0  0  0
 21 22  2  0  0  0  0
 22 23  1  0  0  0  0
 23 24  2  0  0  0  0
 24 19  1  0  0  0  0
  2 25  1  0  0  0  0
 25 26  1  0  0  0  0
 26 27  1  0  0  0  0
 27 28  2  0  0  0  0
 28 29  1  0  0  0  0
 29 25  2  0  0  0  0
M  END
>  <Other ID>
EPL-BS0713

>  <sub series>
aminopiperidines

>  <Source>
Epichem

>  <% growth M.myc at 100 uM>
68.06

>  <% growth M.myc at 25 uM>
85.97

>  <M. Myc IC50>


>  <M. Myc IC90>


>  <MIC50>


$$$$
Chemistry 90
  StarDrop          2D                              

 26 28  0  0  0  0  0  0  0  0999 V2000
    3.8916   -4.9570    0.0000 C   0  0  0  0  0  0  0  0  0  0  0  0
    3.8933   -3.7570    0.0000 N   0  0  0  0  0  0  0  0  0  0  0  0
    4.9336   -3.1588    0.0000 C   0  0  0  0  0  0  0  0  0  0  0  0
    2.5951   -3.0039    0.0000 C   0  0  0  0  0  0  0  0  0  0  0  0
    1.5548   -3.6021    0.0000 O   0  0  0  0  0  0  0  0  0  0  0  0
    2.5973   -1.5031    0.0000 N   0  0  0  0  0  0  0  0  0  0  0  0
    1.2990   -0.7500    0.0000 C   0  0  0  0  0  0  0  0  0  0  0  0
    1.2990    0.7500    0.0000 C   0  0  0  0  0  0  0  0  0  0  0  0
    0.0000    1.5000    0.0000 C   0  0  0  0  0  0  0  0  0  0  0  0
   -1.2990    0.7500    0.0000 N   0  0  0  0  0  0  0  0  0  0  0  0
   -1.2990   -0.7500    0.0000 C   0  0  0  0  0  0  0  0  0  0  0  0
    0.0000   -1.5000    0.0000 C   0  0  0  0  0  0  0  0  0  0  0  0
   -2.5998    1.4986    0.0000 C   0  0  0  0  0  0  0  0  0  0  0  0
   -3.8983    0.7460    0.0000 C   0  0  0  0  0  0  0  0  0  0  0  0
   -3.8989   -0.7540    0.0000 C   0  0  0  0  0  0  0  0  0  0  0  0
   -5.1982   -1.5035    0.0000 C   0  0  0  0  0  0  0  0  0  0  0  0
   -6.4970   -0.7530    0.0000 C   0  0  0  0  0  0  0  0  0  0  0  0
   -7.5364   -1.3527    0.0000 Cl  0  0  0  0  0  0  0  0  0  0  0  0
   -6.4964    0.7470    0.0000 C   0  0  0  0  0  0  0  0  0  0  0  0
   -5.1971    1.4965    0.0000 C   0  0  0  0  0  0  0  0  0  0  0  0
   -2.6013    2.9994    0.0000 C   0  0  0  0  0  0  0  0  0  0  0  0
   -1.3046    3.7535    0.0000 C   0  0  0  0  0  0  0  0  0  0  0  0
   -1.3092    5.2535    0.0000 C   0  0  0  0  0  0  0  0  0  0  0  0
   -2.6105    5.9995    0.0000 C   0  0  0  0  0  0  0  0  0  0  0  0
   -3.9073    5.2455    0.0000 N   0  0  0  0  0  0  0  0  0  0  0  0
   -3.9027    3.7455    0.0000 C   0  0  0  0  0  0  0  0  0  0  0  0
  1  2  1  0  0  0  0
  2  3  1  0  0  0  0
  2  4  1  0  0  0  0
  4  5  2  0  0  0  0
  4  6  1  0  0  0  0
  6  7  1  0  0  0  0
  7  8  1  0  0  0  0
  8  9  1  0  0  0  0
  9 10  1  0  0  0  0
 10 11  1  0  0  0  0
 11 12  1  0  0  0  0
 12  7  1  0  0  0  0
 10 13  1  0  0  0  0
 13 14  1  0  0  0  0
 14 15  2  0  0  0  0
 15 16  1  0  0  0  0
 16 17  2  0  0  0  0
 17 18  1  0  0  0  0
 17 19  1  0  0  0  0
 19 20  2  0  0  0  0
 20 14  1  0  0  0  0
 13 21  1  0  0  0  0
 21 22  2  0  0  0  0
 22 23  1  0  0  0  0
 23 24  2  0  0  0  0
 24 25  1  0  0  0  0
 25 26  2  0  0  0  0
 26 21  1  0  0  0  0
M  END
>  <Other ID>
EPL-BS0499

>  <sub series>
aminopiperidines

>  <Source>
Epichem

>  <% growth M.myc at 100 uM>
95.23

>  <% growth M.myc at 25 uM>
104.6

>  <M. Myc IC50>


>  <M. Myc IC90>


>  <MIC50>


$$$$
Chemistry 97
  StarDrop          2D                              

 30 33  0  0  0  0  0  0  0  0999 V2000
    1.5548   -3.6021    0.0000 O   0  0  0  0  0  0  0  0  0  0  0  0
    2.5951   -3.0039    0.0000 C   0  0  0  0  0  0  0  0  0  0  0  0
    2.5973   -1.5031    0.0000 N   0  0  0  0  0  0  0  0  0  0  0  0
    1.2990   -0.7500    0.0000 C   0  0  0  0  0  0  0  0  0  0  0  0
    1.2990    0.7500    0.0000 C   0  0  0  0  0  0  0  0  0  0  0  0
    0.0000    1.5000    0.0000 C   0  0  0  0  0  0  0  0  0  0  0  0
   -1.2990    0.7500    0.0000 N   0  0  0  0  0  0  0  0  0  0  0  0
   -1.2990   -0.7500    0.0000 C   0  0  0  0  0  0  0  0  0  0  0  0
    0.0000   -1.5000    0.0000 C   0  0  0  0  0  0  0  0  0  0  0  0
   -2.5998    1.4986    0.0000 C   0  0  0  0  0  0  0  0  0  0  0  0
   -3.8983    0.7460    0.0000 C   0  0  0  0  0  0  0  0  0  0  0  0
   -3.8989   -0.7540    0.0000 C   0  0  0  0  0  0  0  0  0  0  0  0
   -5.1982   -1.5035    0.0000 C   0  0  0  0  0  0  0  0  0  0  0  0
   -6.4970   -0.7530    0.0000 C   0  0  0  0  0  0  0  0  0  0  0  0
   -6.4964    0.7470    0.0000 C   0  0  0  0  0  0  0  0  0  0  0  0
   -5.1971    1.4965    0.0000 C   0  0  0  0  0  0  0  0  0  0  0  0
   -7.7970   -1.5030    0.0000 C   0  0  0  0  0  0  0  0  0  0  0  0
   -8.8364   -2.1026    0.0000 N   0  0  0  0  0  0  0  0  0  0  0  0
   -2.6013    2.9994    0.0000 C   0  0  0  0  0  0  0  0  0  0  0  0
   -1.3046    3.7535    0.0000 C   0  0  0  0  0  0  0  0  0  0  0  0
   -1.3092    5.2535    0.0000 C   0  0  0  0  0  0  0  0  0  0  0  0
   -2.6105    5.9995    0.0000 C   0  0  0  0  0  0  0  0  0  0  0  0
   -3.9073    5.2455    0.0000 N   0  0  0  0  0  0  0  0  0  0  0  0
   -3.9027    3.7455    0.0000 C   0  0  0  0  0  0  0  0  0  0  0  0
    3.8933   -3.7570    0.0000 C   0  0  0  0  0  0  0  0  0  0  0  0
    3.8934   -5.2570    0.0000 C   0  0  0  0  0  0  0  0  0  0  0  0
    5.1924   -6.0070    0.0000 C   0  0  0  0  0  0  0  0  0  0  0  0
    6.4915   -5.2571    0.0000 C   0  0  0  0  0  0  0  0  0  0  0  0
    6.4915   -3.7571    0.0000 C   0  0  0  0  0  0  0  0  0  0  0  0
    5.1925   -3.0070    0.0000 C   0  0  0  0  0  0  0  0  0  0  0  0
  1  2  2  0  0  0  0
  2  3  1  0  0  0  0
  3  4  1  0  0  0  0
  4  5  1  0  0  0  0
  5  6  1  0  0  0  0
  6  7  1  0  0  0  0
  7  8  1  0  0  0  0
  8  9  1  0  0  0  0
  9  4  1  0  0  0  0
  7 10  1  0  0  0  0
 10 11  1  0  0  0  0
 11 12  2  0  0  0  0
 12 13  1  0  0  0  0
 13 14  2  0  0  0  0
 14 15  1  0  0  0  0
 15 16  2  0  0  0  0
 16 11  1  0  0  0  0
 14 17  1  0  0  0  0
 17 18  3  0  0  0  0
 10 19  1  0  0  0  0
 19 20  2  0  0  0  0
 20 21  1  0  0  0  0
 21 22  2  0  0  0  0
 22 23  1  0  0  0  0
 23 24  2  0  0  0  0
 24 19  1  0  0  0  0
  2 25  1  0  0  0  0
 25 26  2  0  0  0  0
 26 27  1  0  0  0  0
 27 28  2  0  0  0  0
 28 29  1  0  0  0  0
 29 30  2  0  0  0  0
 30 25  1  0  0  0  0
M  END
>  <Other ID>
EPL-BS0575

>  <sub series>
aminopiperidines

>  <Source>
Epichem

>  <% growth M.myc at 100 uM>
88.15

>  <% growth M.myc at 25 uM>
84.18

>  <M. Myc IC50>


>  <M. Myc IC90>


>  <MIC50>


$$$$
Chemistry 98
  StarDrop          2D                              

 26 28  0  0  0  0  0  0  0  0999 V2000
    1.5548   -3.6021    0.0000 C   0  0  0  0  0  0  0  0  0  0  0  0
    2.5951   -3.0039    0.0000 S   0  0  0  0  0  0  0  0  0  0  0  0
    3.6331   -3.6060    0.0000 O   0  0  0  0  0  0  0  0  0  0  0  0
    2.5928   -4.2039    0.0000 O   0  0  0  0  0  0  0  0  0  0  0  0
    2.5973   -1.5031    0.0000 N   0  0  0  0  0  0  0  0  0  0  0  0
    1.2990   -0.7500    0.0000 C   0  0  0  0  0  0  0  0  0  0  0  0
    1.2990    0.7500    0.0000 C   0  0  0  0  0  0  0  0  0  0  0  0
    0.0000    1.5000    0.0000 C   0  0  0  0  0  0  0  0  0  0  0  0
   -1.2990    0.7500    0.0000 N   0  0  0  0  0  0  0  0  0  0  0  0
   -1.2990   -0.7500    0.0000 C   0  0  0  0  0  0  0  0  0  0  0  0
    0.0000   -1.5000    0.0000 C   0  0  0  0  0  0  0  0  0  0  0  0
   -2.5998    1.4986    0.0000 C   0  0  0  0  0  0  0  0  0  0  0  0
   -3.8983    0.7460    0.0000 C   0  0  0  0  0  0  0  0  0  0  0  0
   -3.8989   -0.7540    0.0000 C   0  0  0  0  0  0  0  0  0  0  0  0
   -5.1982   -1.5035    0.0000 C   0  0  0  0  0  0  0  0  0  0  0  0
   -6.4970   -0.7530    0.0000 C   0  0  0  0  0  0  0  0  0  0  0  0
   -6.4964    0.7470    0.0000 N   0  0  0  0  0  0  0  0  0  0  0  0
   -5.1971    1.4965    0.0000 C   0  0  0  0  0  0  0  0  0  0  0  0
   -2.6013    2.9994    0.0000 C   0  0  0  0  0  0  0  0  0  0  0  0
   -3.9027    3.7455    0.0000 C   0  0  0  0  0  0  0  0  0  0  0  0
   -3.9073    5.2455    0.0000 C   0  0  0  0  0  0  0  0  0  0  0  0
   -2.6105    5.9995    0.0000 C   0  0  0  0  0  0  0  0  0  0  0  0
   -2.6142    7.1995    0.0000 Cl  0  0  0  0  0  0  0  0  0  0  0  0
   -1.3092    5.2535    0.0000 C   0  0  0  0  0  0  0  0  0  0  0  0
   -1.3046    3.7535    0.0000 C   0  0  0  0  0  0  0  0  0  0  0  0
   -0.2635    3.1567    0.0000 F   0  0  0  0  0  0  0  0  0  0  0  0
  1  2  1  0  0  0  0
  2  3  2  0  0  0  0
  2  4  2  0  0  0  0
  2  5  1  0  0  0  0
  5  6  1  0  0  0  0
  6  7  1  0  0  0  0
  7  8  1  0  0  0  0
  8  9  1  0  0  0  0
  9 10  1  0  0  0  0
 10 11  1  0  0  0  0
 11  6  1  0  0  0  0
  9 12  1  0  0  0  0
 12 13  1  0  0  0  0
 13 14  2  0  0  0  0
 14 15  1  0  0  0  0
 15 16  2  0  0  0  0
 16 17  1  0  0  0  0
 17 18  2  0  0  0  0
 18 13  1  0  0  0  0
 12 19  1  0  0  0  0
 19 20  2  0  0  0  0
 20 21  1  0  0  0  0
 21 22  2  0  0  0  0
 22 23  1  0  0  0  0
 22 24  1  0  0  0  0
 24 25  2  0  0  0  0
 25 19  1  0  0  0  0
 25 26  1  0  0  0  0
M  END
>  <Other ID>
EPL-BS0587

>  <sub series>
aminopiperidines

>  <Source>
Epichem

>  <% growth M.myc at 100 uM>
65.68

>  <% growth M.myc at 25 uM>
88.21

>  <M. Myc IC50>


>  <M. Myc IC90>


>  <MIC50>


$$$$
Chemistry 16
  StarDrop          2D                              

 28 30  0  0  0  0  0  0  0  0999 V2000
    4.9292   -5.8600    0.0000 C   0  0  0  0  0  0  0  0  0  0  0  0
    3.8912   -5.2578    0.0000 C   0  0  0  0  0  0  0  0  0  0  0  0
    2.8509   -5.8560    0.0000 C   0  0  0  0  0  0  0  0  0  0  0  0
    3.8889   -6.4578    0.0000 C   0  0  0  0  0  0  0  0  0  0  0  0
    3.8933   -3.7570    0.0000 O   0  0  0  0  0  0  0  0  0  0  0  0
    2.5951   -3.0039    0.0000 C   0  0  0  0  0  0  0  0  0  0  0  0
    1.5548   -3.6021    0.0000 O   0  0  0  0  0  0  0  0  0  0  0  0
    2.5973   -1.5031    0.0000 N   0  0  0  0  0  0  0  0  0  0  0  0
    1.2990   -0.7500    0.0000 C   0  0  0  0  0  0  0  0  0  0  0  0
    1.2990    0.7500    0.0000 C   0  0  0  0  0  0  0  0  0  0  0  0
    0.0000    1.5000    0.0000 C   0  0  0  0  0  0  0  0  0  0  0  0
   -1.2990    0.7500    0.0000 N   0  0  0  0  0  0  0  0  0  0  0  0
   -1.2990   -0.7500    0.0000 C   0  0  0  0  0  0  0  0  0  0  0  0
    0.0000   -1.5000    0.0000 C   0  0  0  0  0  0  0  0  0  0  0  0
   -2.5998    1.4986    0.0000 C   0  0  0  0  0  0  0  0  0  0  0  0
   -3.8983    0.7460    0.0000 C   0  0  0  0  0  0  0  0  0  0  0  0
   -3.8989   -0.7540    0.0000 C   0  0  0  0  0  0  0  0  0  0  0  0
   -5.1982   -1.5035    0.0000 C   0  0  0  0  0  0  0  0  0  0  0  0
   -6.4970   -0.7530    0.0000 C   0  0  0  0  0  0  0  0  0  0  0  0
   -7.5364   -1.3527    0.0000 Cl  0  0  0  0  0  0  0  0  0  0  0  0
   -6.4964    0.7470    0.0000 C   0  0  0  0  0  0  0  0  0  0  0  0
   -5.1971    1.4965    0.0000 C   0  0  0  0  0  0  0  0  0  0  0  0
   -2.6013    2.9994    0.0000 C   0  0  0  0  0  0  0  0  0  0  0  0
   -1.3046    3.7535    0.0000 C   0  0  0  0  0  0  0  0  0  0  0  0
   -1.3092    5.2535    0.0000 N   0  0  0  0  0  0  0  0  0  0  0  0
   -2.6105    5.9995    0.0000 C   0  0  0  0  0  0  0  0  0  0  0  0
   -3.9073    5.2455    0.0000 N   0  0  0  0  0  0  0  0  0  0  0  0
   -3.9027    3.7455    0.0000 C   0  0  0  0  0  0  0  0  0  0  0  0
  1  2  1  0  0  0  0
  2  3  1  0  0  0  0
  2  4  1  0  0  0  0
  2  5  1  0  0  0  0
  5  6  1  0  0  0  0
  6  7  2  0  0  0  0
  6  8  1  0  0  0  0
  8  9  1  0  0  0  0
  9 10  1  0  0  0  0
 10 11  1  0  0  0  0
 11 12  1  0  0  0  0
 12 13  1  0  0  0  0
 13 14  1  0  0  0  0
 14  9  1  0  0  0  0
 12 15  1  0  0  0  0
 15 16  1  0  0  0  0
 16 17  2  0  0  0  0
 17 18  1  0  0  0  0
 18 19  2  0  0  0  0
 19 20  1  0  0  0  0
 19 21  1  0  0  0  0
 21 22  2  0  0  0  0
 22 16  1  0  0  0  0
 15 23  1  0  0  0  0
 23 24  2  0  0  0  0
 24 25  1  0  0  0  0
 25 26  2  0  0  0  0
 26 27  1  0  0  0  0
 27 28  2  0  0  0  0
 28 23  1  0  0  0  0
M  END
>  <Other ID>
EPL-BS0516

>  <sub series>
aminopiperidines

>  <Source>
Epichem

>  <% growth M.myc at 100 uM>
88.71

>  <% growth M.myc at 25 uM>
82.1

>  <M. Myc IC50>


>  <M. Myc IC90>


>  <MIC50>


$$$$
Chemistry 17
  StarDrop          2D                              

 30 33  0  0  0  0  0  0  0  0999 V2000
    5.9865   -6.6460    0.0000 C   0  0  0  0  0  0  0  0  0  0  0  0
    5.4984   -5.5497    0.0000 C   0  0  0  0  0  0  0  0  0  0  0  0
    4.0312   -5.2378    0.0000 C   0  0  0  0  0  0  0  0  0  0  0  0
    3.8933   -3.7570    0.0000 C   0  0  0  0  0  0  0  0  0  0  0  0
    5.2447   -3.1359    0.0000 N   0  0  0  0  0  0  0  0  0  0  0  0
    6.2484   -4.2507    0.0000 N   0  0  0  0  0  0  0  0  0  0  0  0
    2.5951   -3.0039    0.0000 C   0  0  0  0  0  0  0  0  0  0  0  0
    1.5548   -3.6021    0.0000 O   0  0  0  0  0  0  0  0  0  0  0  0
    2.5973   -1.5031    0.0000 N   0  0  0  0  0  0  0  0  0  0  0  0
    1.2990   -0.7500    0.0000 C   0  0  0  0  0  0  0  0  0  0  0  0
    1.2990    0.7500    0.0000 C   0  0  0  0  0  0  0  0  0  0  0  0
    0.0000    1.5000    0.0000 C   0  0  0  0  0  0  0  0  0  0  0  0
   -1.2990    0.7500    0.0000 N   0  0  0  0  0  0  0  0  0  0  0  0
   -1.2990   -0.7500    0.0000 C   0  0  0  0  0  0  0  0  0  0  0  0
    0.0000   -1.5000    0.0000 C   0  0  0  0  0  0  0  0  0  0  0  0
   -2.5998    1.4986    0.0000 C   0  0  0  0  0  0  0  0  0  0  0  0
   -3.8983    0.7460    0.0000 C   0  0  0  0  0  0  0  0  0  0  0  0
   -3.8989   -0.7540    0.0000 C   0  0  0  0  0  0  0  0  0  0  0  0
   -5.1982   -1.5035    0.0000 N   0  0  0  0  0  0  0  0  0  0  0  0
   -6.4970   -0.7530    0.0000 C   0  0  0  0  0  0  0  0  0  0  0  0
   -6.4964    0.7470    0.0000 N   0  0  0  0  0  0  0  0  0  0  0  0
   -5.1971    1.4965    0.0000 C   0  0  0  0  0  0  0  0  0  0  0  0
   -2.6013    2.9994    0.0000 C   0  0  0  0  0  0  0  0  0  0  0  0
   -3.9027    3.7455    0.0000 C   0  0  0  0  0  0  0  0  0  0  0  0
   -3.9073    5.2455    0.0000 C   0  0  0  0  0  0  0  0  0  0  0  0
   -2.6105    5.9995    0.0000 C   0  0  0  0  0  0  0  0  0  0  0  0
   -2.6142    7.1995    0.0000 Cl  0  0  0  0  0  0  0  0  0  0  0  0
   -1.3092    5.2535    0.0000 C   0  0  0  0  0  0  0  0  0  0  0  0
   -1.3046    3.7535    0.0000 C   0  0  0  0  0  0  0  0  0  0  0  0
   -0.2635    3.1567    0.0000 F   0  0  0  0  0  0  0  0  0  0  0  0
  1  2  1  0  0  0  0
  2  3  1  0  0  0  0
  3  4  2  0  0  0  0
  4  5  1  0  0  0  0
  5  6  1  0  0  0  0
  6  2  2  0  0  0  0
  4  7  1  0  0  0  0
  7  8  2  0  0  0  0
  7  9  1  0  0  0  0
  9 10  1  0  0  0  0
 10 11  1  0  0  0  0
 11 12  1  0  0  0  0
 12 13  1  0  0  0  0
 13 14  1  0  0  0  0
 14 15  1  0  0  0  0
 15 10  1  0  0  0  0
 13 16  1  0  0  0  0
 16 17  1  0  0  0  0
 17 18  2  0  0  0  0
 18 19  1  0  0  0  0
 19 20  2  0  0  0  0
 20 21  1  0  0  0  0
 21 22  2  0  0  0  0
 22 17  1  0  0  0  0
 16 23  1  0  0  0  0
 23 24  2  0  0  0  0
 24 25  1  0  0  0  0
 25 26  2  0  0  0  0
 26 27  1  0  0  0  0
 26 28  1  0  0  0  0
 28 29  2  0  0  0  0
 29 23  1  0  0  0  0
 29 30  1  0  0  0  0
M  END
>  <Other ID>
EPL-BS0566

>  <sub series>
aminopiperidines

>  <Source>
Epichem

>  <% growth M.myc at 100 uM>
10.73

>  <% growth M.myc at 25 uM>
81.04

>  <M. Myc IC50>


>  <M. Myc IC90>


>  <MIC50>


$$$$
Chemistry 18
  StarDrop          2D                              

 30 33  0  0  0  0  0  0  0  0999 V2000
    5.9865   -6.6460    0.0000 C   0  0  0  0  0  0  0  0  0  0  0  0
    5.4984   -5.5497    0.0000 C   0  0  0  0  0  0  0  0  0  0  0  0
    4.0312   -5.2378    0.0000 C   0  0  0  0  0  0  0  0  0  0  0  0
    3.8933   -3.7570    0.0000 C   0  0  0  0  0  0  0  0  0  0  0  0
    5.2447   -3.1359    0.0000 N   0  0  0  0  0  0  0  0  0  0  0  0
    6.2484   -4.2507    0.0000 N   0  0  0  0  0  0  0  0  0  0  0  0
    2.5951   -3.0039    0.0000 C   0  0  0  0  0  0  0  0  0  0  0  0
    1.5548   -3.6021    0.0000 O   0  0  0  0  0  0  0  0  0  0  0  0
    2.5973   -1.5031    0.0000 N   0  0  0  0  0  0  0  0  0  0  0  0
    1.2990   -0.7500    0.0000 C   0  0  0  0  0  0  0  0  0  0  0  0
    1.2990    0.7500    0.0000 C   0  0  0  0  0  0  0  0  0  0  0  0
    0.0000    1.5000    0.0000 C   0  0  0  0  0  0  0  0  0  0  0  0
   -1.2990    0.7500    0.0000 N   0  0  0  0  0  0  0  0  0  0  0  0
   -1.2990   -0.7500    0.0000 C   0  0  0  0  0  0  0  0  0  0  0  0
    0.0000   -1.5000    0.0000 C   0  0  0  0  0  0  0  0  0  0  0  0
   -2.5998    1.4986    0.0000 C   0  0  0  0  0  0  0  0  0  0  0  0
   -3.8983    0.7460    0.0000 C   0  0  0  0  0  0  0  0  0  0  0  0
   -3.8989   -0.7540    0.0000 C   0  0  0  0  0  0  0  0  0  0  0  0
   -5.1982   -1.5035    0.0000 N   0  0  0  0  0  0  0  0  0  0  0  0
   -6.4970   -0.7530    0.0000 C   0  0  0  0  0  0  0  0  0  0  0  0
   -6.4964    0.7470    0.0000 N   0  0  0  0  0  0  0  0  0  0  0  0
   -5.1971    1.4965    0.0000 C   0  0  0  0  0  0  0  0  0  0  0  0
   -2.6013    2.9994    0.0000 C   0  0  0  0  0  0  0  0  0  0  0  0
   -3.9027    3.7455    0.0000 C   0  0  0  0  0  0  0  0  0  0  0  0
   -3.9073    5.2455    0.0000 C   0  0  0  0  0  0  0  0  0  0  0  0
   -2.6105    5.9995    0.0000 C   0  0  0  0  0  0  0  0  0  0  0  0
   -2.6142    7.1995    0.0000 Cl  0  0  0  0  0  0  0  0  0  0  0  0
   -1.3092    5.2535    0.0000 C   0  0  0  0  0  0  0  0  0  0  0  0
   -1.3046    3.7535    0.0000 C   0  0  0  0  0  0  0  0  0  0  0  0
   -0.2635    3.1567    0.0000 F   0  0  0  0  0  0  0  0  0  0  0  0
  1  2  1  0  0  0  0
  2  3  1  0  0  0  0
  3  4  2  0  0  0  0
  4  5  1  0  0  0  0
  5  6  1  0  0  0  0
  6  2  2  0  0  0  0
  4  7  1  0  0  0  0
  7  8  2  0  0  0  0
  7  9  1  0  0  0  0
  9 10  1  0  0  0  0
 10 11  1  0  0  0  0
 11 12  1  0  0  0  0
 12 13  1  0  0  0  0
 13 14  1  0  0  0  0
 14 15  1  0  0  0  0
 15 10  1  0  0  0  0
 13 16  1  0  0  0  0
 16 17  1  0  0  0  0
 17 18  2  0  0  0  0
 18 19  1  0  0  0  0
 19 20  2  0  0  0  0
 20 21  1  0  0  0  0
 21 22  2  0  0  0  0
 22 17  1  0  0  0  0
 16 23  1  0  0  0  0
 23 24  2  0  0  0  0
 24 25  1  0  0  0  0
 25 26  2  0  0  0  0
 26 27  1  0  0  0  0
 26 28  1  0  0  0  0
 28 29  2  0  0  0  0
 29 23  1  0  0  0  0
 29 30  1  0  0  0  0
M  END
>  <Other ID>
EPL-BS0593

>  <sub series>
aminopiperidines

>  <Source>
Epichem

>  <% growth M.myc at 100 uM>
52.48

>  <% growth M.myc at 25 uM>
83.01

>  <M. Myc IC50>


>  <M. Myc IC90>


>  <MIC50>


$$$$
Chemistry 91
  StarDrop          2D                              

 28 30  0  0  0  0  0  0  0  0999 V2000
    4.9292   -5.8600    0.0000 C   0  0  0  0  0  0  0  0  0  0  0  0
    3.8912   -5.2578    0.0000 C   0  0  0  0  0  0  0  0  0  0  0  0
    2.8509   -5.8560    0.0000 C   0  0  0  0  0  0  0  0  0  0  0  0
    3.8889   -6.4578    0.0000 C   0  0  0  0  0  0  0  0  0  0  0  0
    3.8933   -3.7570    0.0000 O   0  0  0  0  0  0  0  0  0  0  0  0
    2.5951   -3.0039    0.0000 C   0  0  0  0  0  0  0  0  0  0  0  0
    1.5548   -3.6021    0.0000 O   0  0  0  0  0  0  0  0  0  0  0  0
    2.5973   -1.5031    0.0000 N   0  0  0  0  0  0  0  0  0  0  0  0
    1.2990   -0.7500    0.0000 C   0  0  0  0  0  0  0  0  0  0  0  0
    1.2990    0.7500    0.0000 C   0  0  0  0  0  0  0  0  0  0  0  0
    0.0000    1.5000    0.0000 C   0  0  0  0  0  0  0  0  0  0  0  0
   -1.2990    0.7500    0.0000 N   0  0  0  0  0  0  0  0  0  0  0  0
   -1.2990   -0.7500    0.0000 C   0  0  0  0  0  0  0  0  0  0  0  0
    0.0000   -1.5000    0.0000 C   0  0  0  0  0  0  0  0  0  0  0  0
   -2.5998    1.4986    0.0000 C   0  0  0  0  0  0  0  0  0  0  0  0
   -3.8983    0.7460    0.0000 C   0  0  0  0  0  0  0  0  0  0  0  0
   -3.8989   -0.7540    0.0000 C   0  0  0  0  0  0  0  0  0  0  0  0
   -5.1982   -1.5035    0.0000 C   0  0  0  0  0  0  0  0  0  0  0  0
   -6.4970   -0.7530    0.0000 C   0  0  0  0  0  0  0  0  0  0  0  0
   -7.5364   -1.3527    0.0000 Cl  0  0  0  0  0  0  0  0  0  0  0  0
   -6.4964    0.7470    0.0000 C   0  0  0  0  0  0  0  0  0  0  0  0
   -5.1971    1.4965    0.0000 C   0  0  0  0  0  0  0  0  0  0  0  0
   -2.6013    2.9994    0.0000 C   0  0  0  0  0  0  0  0  0  0  0  0
   -1.3046    3.7535    0.0000 C   0  0  0  0  0  0  0  0  0  0  0  0
   -1.3092    5.2535    0.0000 N   0  0  0  0  0  0  0  0  0  0  0  0
   -2.6105    5.9995    0.0000 C   0  0  0  0  0  0  0  0  0  0  0  0
   -3.9073    5.2455    0.0000 N   0  0  0  0  0  0  0  0  0  0  0  0
   -3.9027    3.7455    0.0000 C   0  0  0  0  0  0  0  0  0  0  0  0
  1  2  1  0  0  0  0
  2  3  1  0  0  0  0
  2  4  1  0  0  0  0
  2  5  1  0  0  0  0
  5  6  1  0  0  0  0
  6  7  2  0  0  0  0
  6  8  1  0  0  0  0
  8  9  1  0  0  0  0
  9 10  1  0  0  0  0
 10 11  1  0  0  0  0
 11 12  1  0  0  0  0
 12 13  1  0  0  0  0
 13 14  1  0  0  0  0
 14  9  1  0  0  0  0
 12 15  1  0  0  0  0
 15 16  1  0  0  0  0
 16 17  2  0  0  0  0
 17 18  1  0  0  0  0
 18 19  2  0  0  0  0
 19 20  1  0  0  0  0
 19 21  1  0  0  0  0
 21 22  2  0  0  0  0
 22 16  1  0  0  0  0
 15 23  1  0  0  0  0
 23 24  2  0  0  0  0
 24 25  1  0  0  0  0
 25 26  2  0  0  0  0
 26 27  1  0  0  0  0
 27 28  2  0  0  0  0
 28 23  1  0  0  0  0
M  END
>  <Other ID>
EPL-BS0516

>  <sub series>
aminopiperidines

>  <Source>
Epichem

>  <% growth M.myc at 100 uM>
76.28

>  <% growth M.myc at 25 uM>
85.22

>  <M. Myc IC50>


>  <M. Myc IC90>


>  <MIC50>


$$$$
Chemistry 94
  StarDrop          2D                              

 26 29  0  0  0  0  0  0  0  0999 V2000
    2.3383   -1.3500    0.0000 Cl  0  0  0  0  0  0  0  0  0  0  0  0
    1.2990   -0.7500    0.0000 C   0  0  0  0  0  0  0  0  0  0  0  0
    1.2990    0.7500    0.0000 C   0  0  0  0  0  0  0  0  0  0  0  0
    0.0000    1.5000    0.0000 C   0  0  0  0  0  0  0  0  0  0  0  0
   -1.2990    0.7500    0.0000 C   0  0  0  0  0  0  0  0  0  0  0  0
   -1.2990   -0.7500    0.0000 C   0  0  0  0  0  0  0  0  0  0  0  0
    0.0000   -1.5000    0.0000 C   0  0  0  0  0  0  0  0  0  0  0  0
   -2.6003    1.4977    0.0000 C   0  0  0  0  0  0  0  0  0  0  0  0
   -2.6030    2.9985    0.0000 N   0  0  0  0  0  0  0  0  0  0  0  0
   -3.9023    3.7481    0.0000 C   0  0  0  0  0  0  0  0  0  0  0  0
   -3.9029    5.2481    0.0000 C   0  0  0  0  0  0  0  0  0  0  0  0
   -2.6041    5.9986    0.0000 C   0  0  0  0  0  0  0  0  0  0  0  0
   -1.3048    5.2491    0.0000 C   0  0  0  0  0  0  0  0  0  0  0  0
   -1.3042    3.7491    0.0000 C   0  0  0  0  0  0  0  0  0  0  0  0
   -2.6016    7.4994    0.0000 N   0  0  0  0  0  0  0  0  0  0  0  0
   -1.3011    8.2485    0.0000 C   0  0  0  0  0  0  0  0  0  0  0  0
   -0.2627    7.6471    0.0000 O   0  0  0  0  0  0  0  0  0  0  0  0
   -1.2986    9.7493    0.0000 C   0  0  0  0  0  0  0  0  0  0  0  0
   -0.5491   10.9573    0.0000 C   0  0  0  0  0  0  0  0  0  0  0  0
   -2.0491   10.9566    0.0000 C   0  0  0  0  0  0  0  0  0  0  0  0
   -3.8990    0.7455    0.0000 C   0  0  0  0  0  0  0  0  0  0  0  0
   -5.2007    1.4909    0.0000 C   0  0  0  0  0  0  0  0  0  0  0  0
   -6.4972    0.7364    0.0000 N   0  0  0  0  0  0  0  0  0  0  0  0
   -6.4920   -0.7636    0.0000 C   0  0  0  0  0  0  0  0  0  0  0  0
   -5.1903   -1.5091    0.0000 N   0  0  0  0  0  0  0  0  0  0  0  0
   -3.8939   -0.7546    0.0000 C   0  0  0  0  0  0  0  0  0  0  0  0
  1  2  1  0  0  0  0
  2  3  2  0  0  0  0
  3  4  1  0  0  0  0
  4  5  2  0  0  0  0
  5  6  1  0  0  0  0
  6  7  2  0  0  0  0
  7  2  1  0  0  0  0
  5  8  1  0  0  0  0
  8  9  1  0  0  0  0
  9 10  1  0  0  0  0
 10 11  1  0  0  0  0
 11 12  1  0  0  0  0
 12 13  1  0  0  0  0
 13 14  1  0  0  0  0
 14  9  1  0  0  0  0
 12 15  1  0  0  0  0
 15 16  1  0  0  0  0
 16 17  2  0  0  0  0
 16 18  1  0  0  0  0
 18 19  1  0  0  0  0
 19 20  1  0  0  0  0
 20 18  1  0  0  0  0
  8 21  1  0  0  0  0
 21 22  2  0  0  0  0
 22 23  1  0  0  0  0
 23 24  2  0  0  0  0
 24 25  1  0  0  0  0
 25 26  2  0  0  0  0
 26 21  1  0  0  0  0
M  END
>  <Other ID>
EPL-BS0535

>  <sub series>
aminopiperidines

>  <Source>
Epichem

>  <% growth M.myc at 100 uM>
73.49

>  <% growth M.myc at 25 uM>
77.28

>  <M. Myc IC50>


>  <M. Myc IC90>


>  <MIC50>


$$$$
Chemistry 29
  StarDrop          2D                              

 27 29  0  0  0  0  0  0  0  0999 V2000
    1.2883   -4.9494    0.0000 C   0  0  0  0  0  0  0  0  0  0  0  0
    1.2925   -3.7494    0.0000 C   0  0  0  0  0  0  0  0  0  0  0  0
    0.2552   -3.1461    0.0000 O   0  0  0  0  0  0  0  0  0  0  0  0
    2.5951   -3.0039    0.0000 N   0  0  0  0  0  0  0  0  0  0  0  0
    2.5973   -1.5031    0.0000 C   0  0  0  0  0  0  0  0  0  0  0  0
    1.2990   -0.7500    0.0000 C   0  0  0  0  0  0  0  0  0  0  0  0
    1.2990    0.7500    0.0000 C   0  0  0  0  0  0  0  0  0  0  0  0
    0.0000    1.5000    0.0000 C   0  0  0  0  0  0  0  0  0  0  0  0
   -1.2990    0.7500    0.0000 N   0  0  0  0  0  0  0  0  0  0  0  0
   -1.2990   -0.7500    0.0000 C   0  0  0  0  0  0  0  0  0  0  0  0
    0.0000   -1.5000    0.0000 C   0  0  0  0  0  0  0  0  0  0  0  0
   -2.5987    1.5004    0.0000 C   0  0  0  0  0  0  0  0  0  0  0  0
   -2.6012    3.0004    0.0000 C   0  0  0  0  0  0  0  0  0  0  0  0
   -3.9015    3.7484    0.0000 C   0  0  0  0  0  0  0  0  0  0  0  0
   -5.1993    2.9963    0.0000 C   0  0  0  0  0  0  0  0  0  0  0  0
   -5.1969    1.4963    0.0000 C   0  0  0  0  0  0  0  0  0  0  0  0
   -3.8967    0.7484    0.0000 C   0  0  0  0  0  0  0  0  0  0  0  0
   -6.5002    3.7446    0.0000 C   0  0  0  0  0  0  0  0  0  0  0  0
   -6.5029    4.9446    0.0000 F   0  0  0  0  0  0  0  0  0  0  0  0
   -7.5383    3.1426    0.0000 F   0  0  0  0  0  0  0  0  0  0  0  0
   -7.5407    4.3425    0.0000 F   0  0  0  0  0  0  0  0  0  0  0  0
    3.8933   -3.7570    0.0000 C   0  0  0  0  0  0  0  0  0  0  0  0
    3.8934   -5.2570    0.0000 C   0  0  0  0  0  0  0  0  0  0  0  0
    5.1924   -6.0070    0.0000 C   0  0  0  0  0  0  0  0  0  0  0  0
    6.4915   -5.2571    0.0000 C   0  0  0  0  0  0  0  0  0  0  0  0
    6.4915   -3.7571    0.0000 N   0  0  0  0  0  0  0  0  0  0  0  0
    5.1925   -3.0070    0.0000 C   0  0  0  0  0  0  0  0  0  0  0  0
  1  2  1  0  0  0  0
  2  3  2  0  0  0  0
  2  4  1  0  0  0  0
  4  5  1  0  0  0  0
  5  6  1  0  0  0  0
  6  7  1  0  0  0  0
  7  8  1  0  0  0  0
  8  9  1  0  0  0  0
  9 10  1  0  0  0  0
 10 11  1  0  0  0  0
 11  6  1  0  0  0  0
  9 12  1  0  0  0  0
 12 13  2  0  0  0  0
 13 14  1  0  0  0  0
 14 15  2  0  0  0  0
 15 16  1  0  0  0  0
 16 17  2  0  0  0  0
 17 12  1  0  0  0  0
 15 18  1  0  0  0  0
 18 19  1  0  0  0  0
 18 20  1  0  0  0  0
 18 21  1  0  0  0  0
  4 22  1  0  0  0  0
 22 23  2  0  0  0  0
 23 24  1  0  0  0  0
 24 25  2  0  0  0  0
 25 26  1  0  0  0  0
 26 27  2  0  0  0  0
 27 22  1  0  0  0  0
M  END
>  <Other ID>
EPL-BS1007

>  <sub series>
diarylamines

>  <Source>
Epichem

>  <% growth M.myc at 100 uM>
83.52

>  <% growth M.myc at 25 uM>
96.8

>  <M. Myc IC50>


>  <M. Myc IC90>


>  <MIC50>


$$$$
Chemistry 31
  StarDrop          2D                              

 26 28  0  0  0  0  0  0  0  0999 V2000
    1.5548   -3.6021    0.0000 C   0  0  0  0  0  0  0  0  0  0  0  0
    2.5951   -3.0039    0.0000 C   0  0  0  0  0  0  0  0  0  0  0  0
    2.5928   -4.2039    0.0000 C   0  0  0  0  0  0  0  0  0  0  0  0
    3.6331   -3.6060    0.0000 O   0  0  0  0  0  0  0  0  0  0  0  0
    2.5973   -1.5031    0.0000 C   0  0  0  0  0  0  0  0  0  0  0  0
    1.2990   -0.7500    0.0000 N   0  0  0  0  0  0  0  0  0  0  0  0
    1.2990    0.7500    0.0000 C   0  0  0  0  0  0  0  0  0  0  0  0
    0.0000    1.5000    0.0000 C   0  0  0  0  0  0  0  0  0  0  0  0
   -1.2990    0.7500    0.0000 C   0  0  0  0  0  0  0  0  0  0  0  0
   -1.2990   -0.7500    0.0000 C   0  0  0  0  0  0  0  0  0  0  0  0
    0.0000   -1.5000    0.0000 C   0  0  0  0  0  0  0  0  0  0  0  0
   -2.5998    1.4986    0.0000 N   0  0  0  0  0  0  0  0  0  0  0  0
   -3.8983    0.7460    0.0000 C   0  0  0  0  0  0  0  0  0  0  0  0
   -3.8989   -0.7540    0.0000 C   0  0  0  0  0  0  0  0  0  0  0  0
   -5.1982   -1.5035    0.0000 C   0  0  0  0  0  0  0  0  0  0  0  0
   -6.4970   -0.7530    0.0000 C   0  0  0  0  0  0  0  0  0  0  0  0
   -6.4964    0.7470    0.0000 C   0  0  0  0  0  0  0  0  0  0  0  0
   -5.1971    1.4965    0.0000 C   0  0  0  0  0  0  0  0  0  0  0  0
   -7.7970   -1.5030    0.0000 C   0  0  0  0  0  0  0  0  0  0  0  0
   -8.8364   -2.1026    0.0000 N   0  0  0  0  0  0  0  0  0  0  0  0
   -2.6013    2.9994    0.0000 C   0  0  0  0  0  0  0  0  0  0  0  0
   -1.3046    3.7535    0.0000 C   0  0  0  0  0  0  0  0  0  0  0  0
   -1.3092    5.2535    0.0000 C   0  0  0  0  0  0  0  0  0  0  0  0
   -2.6105    5.9995    0.0000 C   0  0  0  0  0  0  0  0  0  0  0  0
   -3.9073    5.2455    0.0000 N   0  0  0  0  0  0  0  0  0  0  0  0
   -3.9027    3.7455    0.0000 C   0  0  0  0  0  0  0  0  0  0  0  0
  1  2  1  0  0  0  0
  2  3  1  0  0  0  0
  2  4  1  0  0  0  0
  2  5  1  0  0  0  0
  5  6  1  0  0  0  0
  6  7  1  0  0  0  0
  7  8  1  0  0  0  0
  8  9  1  0  0  0  0
  9 10  1  0  0  0  0
 10 11  1  0  0  0  0
 11  6  1  0  0  0  0
  9 12  1  0  0  0  0
 12 13  1  0  0  0  0
 13 14  2  0  0  0  0
 14 15  1  0  0  0  0
 15 16  2  0  0  0  0
 16 17  1  0  0  0  0
 17 18  2  0  0  0  0
 18 13  1  0  0  0  0
 16 19  1  0  0  0  0
 19 20  3  0  0  0  0
 12 21  1  0  0  0  0
 21 22  2  0  0  0  0
 22 23  1  0  0  0  0
 23 24  2  0  0  0  0
 24 25  1  0  0  0  0
 25 26  2  0  0  0  0
 26 21  1  0  0  0  0
M  END
>  <Other ID>
EPL-BS1071

>  <sub series>
diarylamines

>  <Source>
Epichem

>  <% growth M.myc at 100 uM>
77.35

>  <% growth M.myc at 25 uM>
73.01

>  <M. Myc IC50>


>  <M. Myc IC90>


>  <MIC50>


$$$$
Chemistry 105
  StarDrop          2D                              

 32 35  0  0  0  0  0  0  0  0999 V2000
    2.3383   -1.3500    0.0000 F   0  0  0  0  0  0  0  0  0  0  0  0
    1.2990   -0.7500    0.0000 C   0  0  0  0  0  0  0  0  0  0  0  0
    1.2990    0.7500    0.0000 C   0  0  0  0  0  0  0  0  0  0  0  0
    0.0000    1.5000    0.0000 C   0  0  0  0  0  0  0  0  0  0  0  0
   -1.2990    0.7500    0.0000 C   0  0  0  0  0  0  0  0  0  0  0  0
   -1.2990   -0.7500    0.0000 C   0  0  0  0  0  0  0  0  0  0  0  0
    0.0000   -1.5000    0.0000 C   0  0  0  0  0  0  0  0  0  0  0  0
   -2.6003    1.4977    0.0000 C   0  0  0  0  0  0  0  0  0  0  0  0
   -2.6024    2.6977    0.0000 O   0  0  0  0  0  0  0  0  0  0  0  0
   -3.8990    0.7455    0.0000 N   0  0  0  0  0  0  0  0  0  0  0  0
   -5.2007    1.4909    0.0000 C   0  0  0  0  0  0  0  0  0  0  0  0
   -6.4972    0.7364    0.0000 C   0  0  0  0  0  0  0  0  0  0  0  0
   -6.4920   -0.7636    0.0000 C   0  0  0  0  0  0  0  0  0  0  0  0
   -5.1903   -1.5091    0.0000 C   0  0  0  0  0  0  0  0  0  0  0  0
   -3.8939   -0.7546    0.0000 C   0  0  0  0  0  0  0  0  0  0  0  0
   -7.7880   -1.5202    0.0000 N   0  0  0  0  0  0  0  0  0  0  0  0
   -7.7803   -3.0210    0.0000 C   0  0  0  0  0  0  0  0  0  0  0  0
   -6.4790   -3.7671    0.0000 C   0  0  0  0  0  0  0  0  0  0  0  0
   -6.4744   -5.2671    0.0000 C   0  0  0  0  0  0  0  0  0  0  0  0
   -7.7711   -6.0211    0.0000 C   0  0  0  0  0  0  0  0  0  0  0  0
   -9.0724   -5.2751    0.0000 C   0  0  0  0  0  0  0  0  0  0  0  0
   -9.0771   -3.7751    0.0000 C   0  0  0  0  0  0  0  0  0  0  0  0
   -7.7664   -7.5219    0.0000 C   0  0  0  0  0  0  0  0  0  0  0  0
   -6.7257   -8.1194    0.0000 F   0  0  0  0  0  0  0  0  0  0  0  0
   -8.8040   -8.1248    0.0000 F   0  0  0  0  0  0  0  0  0  0  0  0
   -7.7633   -8.7219    0.0000 F   0  0  0  0  0  0  0  0  0  0  0  0
   -9.0912   -0.7757    0.0000 C   0  0  0  0  0  0  0  0  0  0  0  0
   -9.1010    0.7243    0.0000 C   0  0  0  0  0  0  0  0  0  0  0  0
  -10.4049    1.4658    0.0000 C   0  0  0  0  0  0  0  0  0  0  0  0
  -11.6991    0.7074    0.0000 C   0  0  0  0  0  0  0  0  0  0  0  0
  -11.6893   -0.7926    0.0000 N   0  0  0  0  0  0  0  0  0  0  0  0
  -10.3854   -1.5341    0.0000 C   0  0  0  0  0  0  0  0  0  0  0  0
  1  2  1  0  0  0  0
  2  3  2  0  0  0  0
  3  4  1  0  0  0  0
  4  5  2  0  0  0  0
  5  6  1  0  0  0  0
  6  7  2  0  0  0  0
  7  2  1  0  0  0  0
  5  8  1  0  0  0  0
  8  9  2  0  0  0  0
  8 10  1  0  0  0  0
 10 11  1  0  0  0  0
 11 12  1  0  0  0  0
 12 13  1  0  0  0  0
 13 14  1  0  0  0  0
 14 15  1  0  0  0  0
 15 10  1  0  0  0  0
 13 16  1  0  0  0  0
 16 17  1  0  0  0  0
 17 18  2  0  0  0  0
 18 19  1  0  0  0  0
 19 20  2  0  0  0  0
 20 21  1  0  0  0  0
 21 22  2  0  0  0  0
 22 17  1  0  0  0  0
 20 23  1  0  0  0  0
 23 24  1  0  0  0  0
 23 25  1  0  0  0  0
 23 26  1  0  0  0  0
 16 27  1  0  0  0  0
 27 28  2  0  0  0  0
 28 29  1  0  0  0  0
 29 30  2  0  0  0  0
 30 31  1  0  0  0  0
 31 32  2  0  0  0  0
 32 27  1  0  0  0  0
M  END
>  <Other ID>
EPL-BS0839

>  <sub series>
diarylamines

>  <Source>
Epichem

>  <% growth M.myc at 100 uM>
-1.158

>  <% growth M.myc at 25 uM>
69.65

>  <M. Myc IC50>


>  <M. Myc IC90>


>  <MIC50>


$$$$
Chemistry 106
  StarDrop          2D                              

 33 36  0  0  0  0  0  0  0  0999 V2000
    3.6384   -0.9011    0.0000 F   0  0  0  0  0  0  0  0  0  0  0  0
    2.5988   -1.5004    0.0000 C   0  0  0  0  0  0  0  0  0  0  0  0
    2.5984   -2.7004    0.0000 F   0  0  0  0  0  0  0  0  0  0  0  0
    3.6377   -2.1009    0.0000 F   0  0  0  0  0  0  0  0  0  0  0  0
    1.2990   -0.7500    0.0000 C   0  0  0  0  0  0  0  0  0  0  0  0
    1.2990    0.7500    0.0000 C   0  0  0  0  0  0  0  0  0  0  0  0
    0.0000    1.5000    0.0000 C   0  0  0  0  0  0  0  0  0  0  0  0
   -1.2990    0.7500    0.0000 C   0  0  0  0  0  0  0  0  0  0  0  0
   -1.2990   -0.7500    0.0000 C   0  0  0  0  0  0  0  0  0  0  0  0
    0.0000   -1.5000    0.0000 C   0  0  0  0  0  0  0  0  0  0  0  0
   -2.6003    1.4977    0.0000 N   0  0  0  0  0  0  0  0  0  0  0  0
   -2.6030    2.9985    0.0000 C   0  0  0  0  0  0  0  0  0  0  0  0
   -3.9023    3.7481    0.0000 C   0  0  0  0  0  0  0  0  0  0  0  0
   -3.9029    5.2481    0.0000 C   0  0  0  0  0  0  0  0  0  0  0  0
   -2.6041    5.9986    0.0000 N   0  0  0  0  0  0  0  0  0  0  0  0
   -1.3048    5.2491    0.0000 C   0  0  0  0  0  0  0  0  0  0  0  0
   -1.3042    3.7491    0.0000 C   0  0  0  0  0  0  0  0  0  0  0  0
   -2.6047    7.4994    0.0000 C   0  0  0  0  0  0  0  0  0  0  0  0
   -3.9028    8.2510    0.0000 C   0  0  0  0  0  0  0  0  0  0  0  0
   -3.9010    9.7510    0.0000 C   0  0  0  0  0  0  0  0  0  0  0  0
   -2.6011   10.4995    0.0000 C   0  0  0  0  0  0  0  0  0  0  0  0
   -1.3029    9.7479    0.0000 C   0  0  0  0  0  0  0  0  0  0  0  0
   -1.3048    8.2479    0.0000 C   0  0  0  0  0  0  0  0  0  0  0  0
   -2.5993   12.0003    0.0000 C   0  0  0  0  0  0  0  0  0  0  0  0
   -3.6374   12.6022    0.0000 F   0  0  0  0  0  0  0  0  0  0  0  0
   -1.5591   12.5987    0.0000 F   0  0  0  0  0  0  0  0  0  0  0  0
   -2.5972   13.2003    0.0000 F   0  0  0  0  0  0  0  0  0  0  0  0
   -3.8990    0.7455    0.0000 C   0  0  0  0  0  0  0  0  0  0  0  0
   -5.2007    1.4909    0.0000 C   0  0  0  0  0  0  0  0  0  0  0  0
   -6.4972    0.7364    0.0000 C   0  0  0  0  0  0  0  0  0  0  0  0
   -6.4920   -0.7636    0.0000 C   0  0  0  0  0  0  0  0  0  0  0  0
   -5.1903   -1.5091    0.0000 N   0  0  0  0  0  0  0  0  0  0  0  0
   -3.8939   -0.7546    0.0000 C   0  0  0  0  0  0  0  0  0  0  0  0
  1  2  1  0  0  0  0
  2  3  1  0  0  0  0
  2  4  1  0  0  0  0
  2  5  1  0  0  0  0
  5  6  2  0  0  0  0
  6  7  1  0  0  0  0
  7  8  2  0  0  0  0
  8  9  1  0  0  0  0
  9 10  2  0  0  0  0
 10  5  1  0  0  0  0
  8 11  1  0  0  0  0
 11 12  1  0  0  0  0
 12 13  1  0  0  0  0
 13 14  1  0  0  0  0
 14 15  1  0  0  0  0
 15 16  1  0  0  0  0
 16 17  1  0  0  0  0
 17 12  1  0  0  0  0
 15 18  1  0  0  0  0
 18 19  2  0  0  0  0
 19 20  1  0  0  0  0
 20 21  2  0  0  0  0
 21 22  1  0  0  0  0
 22 23  2  0  0  0  0
 23 18  1  0  0  0  0
 21 24  1  0  0  0  0
 24 25  1  0  0  0  0
 24 26  1  0  0  0  0
 24 27  1  0  0  0  0
 11 28  1  0  0  0  0
 28 29  2  0  0  0  0
 29 30  1  0  0  0  0
 30 31  2  0  0  0  0
 31 32  1  0  0  0  0
 32 33  2  0  0  0  0
 33 28  1  0  0  0  0
M  END
>  <Other ID>
EPL-BS0863

>  <sub series>
diarylamines

>  <Source>
Epichem

>  <% growth M.myc at 100 uM>
87

>  <% growth M.myc at 25 uM>
86.73

>  <M. Myc IC50>


>  <M. Myc IC90>


>  <MIC50>


$$$$
Chemistry 109
  StarDrop          2D                              

 31 34  0  0  0  0  0  0  0  0999 V2000
    3.6384   -0.9011    0.0000 F   0  0  0  0  0  0  0  0  0  0  0  0
    2.5988   -1.5004    0.0000 C   0  0  0  0  0  0  0  0  0  0  0  0
    2.5984   -2.7004    0.0000 F   0  0  0  0  0  0  0  0  0  0  0  0
    3.6377   -2.1009    0.0000 F   0  0  0  0  0  0  0  0  0  0  0  0
    1.2990   -0.7500    0.0000 C   0  0  0  0  0  0  0  0  0  0  0  0
    1.2990    0.7500    0.0000 C   0  0  0  0  0  0  0  0  0  0  0  0
    0.0000    1.5000    0.0000 C   0  0  0  0  0  0  0  0  0  0  0  0
   -1.2990    0.7500    0.0000 C   0  0  0  0  0  0  0  0  0  0  0  0
   -1.2990   -0.7500    0.0000 C   0  0  0  0  0  0  0  0  0  0  0  0
    0.0000   -1.5000    0.0000 C   0  0  0  0  0  0  0  0  0  0  0  0
   -2.6003    1.4977    0.0000 N   0  0  0  0  0  0  0  0  0  0  0  0
   -3.8990    0.7455    0.0000 C   0  0  0  0  0  0  0  0  0  0  0  0
   -5.2003    1.4932    0.0000 C   0  0  0  0  0  0  0  0  0  0  0  0
   -6.4994    0.7432    0.0000 C   0  0  0  0  0  0  0  0  0  0  0  0
   -7.7985    1.4932    0.0000 C   0  0  0  0  0  0  0  0  0  0  0  0
   -7.7985    2.9932    0.0000 N   0  0  0  0  0  0  0  0  0  0  0  0
   -6.4995    3.7432    0.0000 C   0  0  0  0  0  0  0  0  0  0  0  0
   -5.2004    2.9933    0.0000 C   0  0  0  0  0  0  0  0  0  0  0  0
   -9.0982    3.7435    0.0000 C   0  0  0  0  0  0  0  0  0  0  0  0
  -10.3985    2.9956    0.0000 C   0  0  0  0  0  0  0  0  0  0  0  0
  -11.6964    3.7476    0.0000 C   0  0  0  0  0  0  0  0  0  0  0  0
  -11.6941    5.2476    0.0000 C   0  0  0  0  0  0  0  0  0  0  0  0
  -12.7323    5.8493    0.0000 Cl  0  0  0  0  0  0  0  0  0  0  0  0
  -10.3939    5.9956    0.0000 C   0  0  0  0  0  0  0  0  0  0  0  0
   -9.0960    5.2436    0.0000 C   0  0  0  0  0  0  0  0  0  0  0  0
   -2.6030    2.9985    0.0000 C   0  0  0  0  0  0  0  0  0  0  0  0
   -3.9023    3.7481    0.0000 C   0  0  0  0  0  0  0  0  0  0  0  0
   -3.9029    5.2481    0.0000 C   0  0  0  0  0  0  0  0  0  0  0  0
   -2.6041    5.9986    0.0000 C   0  0  0  0  0  0  0  0  0  0  0  0
   -1.3048    5.2491    0.0000 N   0  0  0  0  0  0  0  0  0  0  0  0
   -1.3042    3.7491    0.0000 C   0  0  0  0  0  0  0  0  0  0  0  0
  1  2  1  0  0  0  0
  2  3  1  0  0  0  0
  2  4  1  0  0  0  0
  2  5  1  0  0  0  0
  5  6  2  0  0  0  0
  6  7  1  0  0  0  0
  7  8  2  0  0  0  0
  8  9  1  0  0  0  0
  9 10  2  0  0  0  0
 10  5  1  0  0  0  0
  8 11  1  0  0  0  0
 11 12  1  0  0  0  0
 12 13  1  0  0  0  0
 13 14  1  0  0  0  0
 14 15  1  0  0  0  0
 15 16  1  0  0  0  0
 16 17  1  0  0  0  0
 17 18  1  0  0  0  0
 18 13  1  0  0  0  0
 16 19  1  0  0  0  0
 19 20  2  0  0  0  0
 20 21  1  0  0  0  0
 21 22  2  0  0  0  0
 22 23  1  0  0  0  0
 22 24  1  0  0  0  0
 24 25  2  0  0  0  0
 25 19  1  0  0  0  0
 11 26  1  0  0  0  0
 26 27  2  0  0  0  0
 27 28  1  0  0  0  0
 28 29  2  0  0  0  0
 29 30  1  0  0  0  0
 30 31  2  0  0  0  0
 31 26  1  0  0  0  0
M  END
>  <Other ID>
EPL-BS0930

>  <sub series>
diarylamines

>  <Source>
Epichem

>  <% growth M.myc at 100 uM>
79.96

>  <% growth M.myc at 25 uM>
81.34

>  <M. Myc IC50>


>  <M. Myc IC90>


>  <MIC50>


$$$$
Chemistry 110
  StarDrop          2D                              

 31 33  0  0  0  0  0  0  0  0999 V2000
   -2.3447   -3.1374    0.0000 C   0  0  0  0  0  0  0  0  0  0  0  0
   -1.3074   -3.7406    0.0000 C   0  0  0  0  0  0  0  0  0  0  0  0
   -2.3486   -4.3372    0.0000 C   0  0  0  0  0  0  0  0  0  0  0  0
   -1.3115   -4.9406    0.0000 C   0  0  0  0  0  0  0  0  0  0  0  0
   -0.0048   -2.9950    0.0000 C   0  0  0  0  0  0  0  0  0  0  0  0
    1.2926   -3.7495    0.0000 C   0  0  0  0  0  0  0  0  0  0  0  0
    1.2885   -4.9495    0.0000 O   0  0  0  0  0  0  0  0  0  0  0  0
    2.5951   -3.0039    0.0000 N   0  0  0  0  0  0  0  0  0  0  0  0
    2.5973   -1.5030    0.0000 C   0  0  0  0  0  0  0  0  0  0  0  0
    1.2990   -0.7500    0.0000 C   0  0  0  0  0  0  0  0  0  0  0  0
    1.2990    0.7500    0.0000 C   0  0  0  0  0  0  0  0  0  0  0  0
    0.0000    1.5000    0.0000 C   0  0  0  0  0  0  0  0  0  0  0  0
   -1.2990    0.7500    0.0000 N   0  0  0  0  0  0  0  0  0  0  0  0
   -1.2990   -0.7500    0.0000 C   0  0  0  0  0  0  0  0  0  0  0  0
    0.0000   -1.5000    0.0000 C   0  0  0  0  0  0  0  0  0  0  0  0
   -2.5987    1.5004    0.0000 C   0  0  0  0  0  0  0  0  0  0  0  0
   -2.6012    3.0004    0.0000 C   0  0  0  0  0  0  0  0  0  0  0  0
   -3.9015    3.7484    0.0000 C   0  0  0  0  0  0  0  0  0  0  0  0
   -5.1993    2.9963    0.0000 C   0  0  0  0  0  0  0  0  0  0  0  0
   -5.1969    1.4963    0.0000 C   0  0  0  0  0  0  0  0  0  0  0  0
   -3.8967    0.7484    0.0000 C   0  0  0  0  0  0  0  0  0  0  0  0
   -6.5002    3.7446    0.0000 C   0  0  0  0  0  0  0  0  0  0  0  0
   -6.5029    4.9446    0.0000 F   0  0  0  0  0  0  0  0  0  0  0  0
   -7.5383    3.1426    0.0000 F   0  0  0  0  0  0  0  0  0  0  0  0
   -7.5407    4.3425    0.0000 F   0  0  0  0  0  0  0  0  0  0  0  0
    3.8934   -3.7569    0.0000 C   0  0  0  0  0  0  0  0  0  0  0  0
    5.1961   -3.0132    0.0000 C   0  0  0  0  0  0  0  0  0  0  0  0
    6.4915   -3.7695    0.0000 C   0  0  0  0  0  0  0  0  0  0  0  0
    6.4843   -5.2694    0.0000 C   0  0  0  0  0  0  0  0  0  0  0  0
    5.1817   -6.0132    0.0000 N   0  0  0  0  0  0  0  0  0  0  0  0
    3.8862   -5.2570    0.0000 C   0  0  0  0  0  0  0  0  0  0  0  0
  1  2  1  0  0  0  0
  2  3  1  0  0  0  0
  2  4  1  0  0  0  0
  2  5  1  0  0  0  0
  5  6  1  0  0  0  0
  6  7  2  0  0  0  0
  6  8  1  0  0  0  0
  8  9  1  0  0  0  0
  9 10  1  0  0  0  0
 10 11  1  0  0  0  0
 11 12  1  0  0  0  0
 12 13  1  0  0  0  0
 13 14  1  0  0  0  0
 14 15  1  0  0  0  0
 15 10  1  0  0  0  0
 13 16  1  0  0  0  0
 16 17  2  0  0  0  0
 17 18  1  0  0  0  0
 18 19  2  0  0  0  0
 19 20  1  0  0  0  0
 20 21  2  0  0  0  0
 21 16  1  0  0  0  0
 19 22  1  0  0  0  0
 22 23  1  0  0  0  0
 22 24  1  0  0  0  0
 22 25  1  0  0  0  0
  8 26  1  0  0  0  0
 26 27  2  0  0  0  0
 27 28  1  0  0  0  0
 28 29  2  0  0  0  0
 29 30  1  0  0  0  0
 30 31  2  0  0  0  0
 31 26  1  0  0  0  0
M  END
>  <Other ID>
EPL-BS1008

>  <sub series>
diarylamines

>  <Source>
Epichem

>  <% growth M.myc at 100 uM>
51.02

>  <% growth M.myc at 25 uM>
81.59

>  <M. Myc IC50>


>  <M. Myc IC90>


>  <MIC50>


$$$$
Chemistry 112
  StarDrop          2D                              

 33 36  0  0  0  0  0  0  0  0999 V2000
    3.6390   -3.6012    0.0000 C   0  0  0  0  0  0  0  0  0  0  0  0
    2.5997   -3.0012    0.0000 N   0  0  0  0  0  0  0  0  0  0  0  0
    1.5607   -3.6016    0.0000 C   0  0  0  0  0  0  0  0  0  0  0  0
    2.5988   -1.5004    0.0000 S   0  0  0  0  0  0  0  0  0  0  0  0
    3.6383   -2.0999    0.0000 O   0  0  0  0  0  0  0  0  0  0  0  0
    3.6378   -0.9001    0.0000 O   0  0  0  0  0  0  0  0  0  0  0  0
    1.2990   -0.7500    0.0000 C   0  0  0  0  0  0  0  0  0  0  0  0
    1.2990    0.7500    0.0000 C   0  0  0  0  0  0  0  0  0  0  0  0
    0.0000    1.5000    0.0000 C   0  0  0  0  0  0  0  0  0  0  0  0
   -1.2990    0.7500    0.0000 C   0  0  0  0  0  0  0  0  0  0  0  0
   -1.2990   -0.7500    0.0000 C   0  0  0  0  0  0  0  0  0  0  0  0
    0.0000   -1.5000    0.0000 C   0  0  0  0  0  0  0  0  0  0  0  0
   -2.5987   -1.5004    0.0000 N   0  0  0  0  0  0  0  0  0  0  0  0
   -3.8991   -0.7525    0.0000 C   0  0  0  0  0  0  0  0  0  0  0  0
   -5.1969   -1.5046    0.0000 C   0  0  0  0  0  0  0  0  0  0  0  0
   -5.1945   -3.0046    0.0000 C   0  0  0  0  0  0  0  0  0  0  0  0
   -3.8943   -3.7525    0.0000 C   0  0  0  0  0  0  0  0  0  0  0  0
   -2.5964   -3.0004    0.0000 C   0  0  0  0  0  0  0  0  0  0  0  0
   -6.4920   -3.7588    0.0000 N   0  0  0  0  0  0  0  0  0  0  0  0
   -6.4871   -5.2596    0.0000 C   0  0  0  0  0  0  0  0  0  0  0  0
   -5.1872   -6.0081    0.0000 C   0  0  0  0  0  0  0  0  0  0  0  0
   -5.1853   -7.5081    0.0000 C   0  0  0  0  0  0  0  0  0  0  0  0
   -6.4835   -8.2597    0.0000 C   0  0  0  0  0  0  0  0  0  0  0  0
   -7.7834   -7.5113    0.0000 C   0  0  0  0  0  0  0  0  0  0  0  0
   -7.7853   -6.0113    0.0000 C   0  0  0  0  0  0  0  0  0  0  0  0
   -6.4816   -9.7605    0.0000 C   0  0  0  0  0  0  0  0  0  0  0  0
   -6.4802  -10.9605    0.0000 N   0  0  0  0  0  0  0  0  0  0  0  0
   -7.7937   -3.0118    0.0000 C   0  0  0  0  0  0  0  0  0  0  0  0
   -7.8008   -1.5118    0.0000 C   0  0  0  0  0  0  0  0  0  0  0  0
   -9.1033   -0.7678    0.0000 C   0  0  0  0  0  0  0  0  0  0  0  0
  -10.3988   -1.5239    0.0000 C   0  0  0  0  0  0  0  0  0  0  0  0
  -10.3919   -3.0238    0.0000 N   0  0  0  0  0  0  0  0  0  0  0  0
   -9.0893   -3.7678    0.0000 C   0  0  0  0  0  0  0  0  0  0  0  0
  1  2  1  0  0  0  0
  2  3  1  0  0  0  0
  2  4  1  0  0  0  0
  4  5  2  0  0  0  0
  4  6  2  0  0  0  0
  4  7  1  0  0  0  0
  7  8  2  0  0  0  0
  8  9  1  0  0  0  0
  9 10  2  0  0  0  0
 10 11  1  0  0  0  0
 11 12  2  0  0  0  0
 12  7  1  0  0  0  0
 11 13  1  0  0  0  0
 13 14  1  0  0  0  0
 14 15  1  0  0  0  0
 15 16  1  0  0  0  0
 16 17  1  0  0  0  0
 17 18  1  0  0  0  0
 18 13  1  0  0  0  0
 16 19  1  0  0  0  0
 19 20  1  0  0  0  0
 20 21  2  0  0  0  0
 21 22  1  0  0  0  0
 22 23  2  0  0  0  0
 23 24  1  0  0  0  0
 24 25  2  0  0  0  0
 25 20  1  0  0  0  0
 23 26  1  0  0  0  0
 26 27  3  0  0  0  0
 19 28  1  0  0  0  0
 28 29  2  0  0  0  0
 29 30  1  0  0  0  0
 30 31  2  0  0  0  0
 31 32  1  0  0  0  0
 32 33  2  0  0  0  0
 33 28  1  0  0  0  0
M  END
>  <Other ID>
EPL-BS1044

>  <sub series>
diarylamines

>  <Source>
Epichem

>  <% growth M.myc at 100 uM>
89.59

>  <% growth M.myc at 25 uM>
86.26

>  <M. Myc IC50>


>  <M. Myc IC90>


>  <MIC50>


$$$$
Chemistry 113
  StarDrop          2D                              

 29 31  0  0  0  0  0  0  0  0999 V2000
    4.9372   -1.3609    0.0000 C   0  0  0  0  0  0  0  0  0  0  0  0
    3.8999   -0.7576    0.0000 C   0  0  0  0  0  0  0  0  0  0  0  0
    2.5973   -1.5031    0.0000 C   0  0  0  0  0  0  0  0  0  0  0  0
    2.5951   -3.0039    0.0000 C   0  0  0  0  0  0  0  0  0  0  0  0
    1.5548   -3.6021    0.0000 C   0  0  0  0  0  0  0  0  0  0  0  0
    3.6331   -3.6060    0.0000 O   0  0  0  0  0  0  0  0  0  0  0  0
    1.2990   -0.7500    0.0000 N   0  0  0  0  0  0  0  0  0  0  0  0
    1.2990    0.7500    0.0000 C   0  0  0  0  0  0  0  0  0  0  0  0
    0.0000    1.5000    0.0000 C   0  0  0  0  0  0  0  0  0  0  0  0
   -1.2990    0.7500    0.0000 C   0  0  0  0  0  0  0  0  0  0  0  0
   -1.2990   -0.7500    0.0000 C   0  0  0  0  0  0  0  0  0  0  0  0
    0.0000   -1.5000    0.0000 C   0  0  0  0  0  0  0  0  0  0  0  0
   -2.5998    1.4986    0.0000 N   0  0  0  0  0  0  0  0  0  0  0  0
   -3.8983    0.7460    0.0000 C   0  0  0  0  0  0  0  0  0  0  0  0
   -3.8989   -0.7540    0.0000 C   0  0  0  0  0  0  0  0  0  0  0  0
   -5.1982   -1.5035    0.0000 C   0  0  0  0  0  0  0  0  0  0  0  0
   -6.4970   -0.7530    0.0000 C   0  0  0  0  0  0  0  0  0  0  0  0
   -6.4964    0.7470    0.0000 C   0  0  0  0  0  0  0  0  0  0  0  0
   -5.1971    1.4965    0.0000 C   0  0  0  0  0  0  0  0  0  0  0  0
   -7.7970   -1.5030    0.0000 C   0  0  0  0  0  0  0  0  0  0  0  0
   -7.7982   -2.7030    0.0000 F   0  0  0  0  0  0  0  0  0  0  0  0
   -8.8358   -0.9023    0.0000 F   0  0  0  0  0  0  0  0  0  0  0  0
   -8.8367   -2.1021    0.0000 F   0  0  0  0  0  0  0  0  0  0  0  0
   -2.6013    2.9994    0.0000 C   0  0  0  0  0  0  0  0  0  0  0  0
   -1.3046    3.7535    0.0000 C   0  0  0  0  0  0  0  0  0  0  0  0
   -1.3092    5.2535    0.0000 C   0  0  0  0  0  0  0  0  0  0  0  0
   -2.6105    5.9995    0.0000 C   0  0  0  0  0  0  0  0  0  0  0  0
   -3.9073    5.2455    0.0000 N   0  0  0  0  0  0  0  0  0  0  0  0
   -3.9027    3.7455    0.0000 C   0  0  0  0  0  0  0  0  0  0  0  0
  1  2  1  0  0  0  0
  2  3  1  0  0  0  0
  3  4  1  0  0  0  0
  4  5  1  0  0  0  0
  4  6  1  0  0  0  0
  3  7  1  0  0  0  0
  7  8  1  0  0  0  0
  8  9  1  0  0  0  0
  9 10  1  0  0  0  0
 10 11  1  0  0  0  0
 11 12  1  0  0  0  0
 12  7  1  0  0  0  0
 10 13  1  0  0  0  0
 13 14  1  0  0  0  0
 14 15  2  0  0  0  0
 15 16  1  0  0  0  0
 16 17  2  0  0  0  0
 17 18  1  0  0  0  0
 18 19  2  0  0  0  0
 19 14  1  0  0  0  0
 17 20  1  0  0  0  0
 20 21  1  0  0  0  0
 20 22  1  0  0  0  0
 20 23  1  0  0  0  0
 13 24  1  0  0  0  0
 24 25  2  0  0  0  0
 25 26  1  0  0  0  0
 26 27  2  0  0  0  0
 27 28  1  0  0  0  0
 28 29  2  0  0  0  0
 29 24  1  0  0  0  0
M  END
>  <Other ID>
EPL-BS1072

>  <sub series>
diarylamines

>  <Source>
Epichem

>  <% growth M.myc at 100 uM>
59.89

>  <% growth M.myc at 25 uM>
85.07

>  <M. Myc IC50>


>  <M. Myc IC90>


>  <MIC50>


$$$$
Chemistry 122
  StarDrop          2D                              

 28 31  0  0  0  0  0  0  0  0999 V2000
    2.3383   -1.3500    0.0000 Cl  0  0  0  0  0  0  0  0  0  0  0  0
    1.2990   -0.7500    0.0000 C   0  0  0  0  0  0  0  0  0  0  0  0
    1.2990    0.7500    0.0000 C   0  0  0  0  0  0  0  0  0  0  0  0
    0.0000    1.5000    0.0000 C   0  0  0  0  0  0  0  0  0  0  0  0
   -1.2990    0.7500    0.0000 C   0  0  0  0  0  0  0  0  0  0  0  0
   -1.2990   -0.7500    0.0000 C   0  0  0  0  0  0  0  0  0  0  0  0
    0.0000   -1.5000    0.0000 C   0  0  0  0  0  0  0  0  0  0  0  0
   -2.6003    1.4977    0.0000 N   0  0  0  0  0  0  0  0  0  0  0  0
   -2.6030    2.9985    0.0000 C   0  0  0  0  0  0  0  0  0  0  0  0
   -3.9023    3.7481    0.0000 C   0  0  0  0  0  0  0  0  0  0  0  0
   -3.9029    5.2481    0.0000 C   0  0  0  0  0  0  0  0  0  0  0  0
   -2.6041    5.9986    0.0000 N   0  0  0  0  0  0  0  0  0  0  0  0
   -1.3048    5.2491    0.0000 C   0  0  0  0  0  0  0  0  0  0  0  0
   -1.3042    3.7491    0.0000 C   0  0  0  0  0  0  0  0  0  0  0  0
   -2.6016    7.4994    0.0000 C   0  0  0  0  0  0  0  0  0  0  0  0
   -3.6400    8.1009    0.0000 O   0  0  0  0  0  0  0  0  0  0  0  0
   -1.3011    8.2485    0.0000 C   0  0  0  0  0  0  0  0  0  0  0  0
   -1.2964    9.7485    0.0000 C   0  0  0  0  0  0  0  0  0  0  0  0
    0.0050   10.4945    0.0000 C   0  0  0  0  0  0  0  0  0  0  0  0
    1.3017    9.7405    0.0000 C   0  0  0  0  0  0  0  0  0  0  0  0
    1.2971    8.2405    0.0000 C   0  0  0  0  0  0  0  0  0  0  0  0
   -0.0043    7.4945    0.0000 C   0  0  0  0  0  0  0  0  0  0  0  0
   -3.8990    0.7455    0.0000 C   0  0  0  0  0  0  0  0  0  0  0  0
   -5.2007    1.4909    0.0000 C   0  0  0  0  0  0  0  0  0  0  0  0
   -6.4972    0.7364    0.0000 C   0  0  0  0  0  0  0  0  0  0  0  0
   -6.4920   -0.7636    0.0000 C   0  0  0  0  0  0  0  0  0  0  0  0
   -5.1903   -1.5091    0.0000 N   0  0  0  0  0  0  0  0  0  0  0  0
   -3.8939   -0.7546    0.0000 C   0  0  0  0  0  0  0  0  0  0  0  0
  1  2  1  0  0  0  0
  2  3  2  0  0  0  0
  3  4  1  0  0  0  0
  4  5  2  0  0  0  0
  5  6  1  0  0  0  0
  6  7  2  0  0  0  0
  7  2  1  0  0  0  0
  5  8  1  0  0  0  0
  8  9  1  0  0  0  0
  9 10  1  0  0  0  0
 10 11  1  0  0  0  0
 11 12  1  0  0  0  0
 12 13  1  0  0  0  0
 13 14  1  0  0  0  0
 14  9  1  0  0  0  0
 12 15  1  0  0  0  0
 15 16  2  0  0  0  0
 15 17  1  0  0  0  0
 17 18  2  0  0  0  0
 18 19  1  0  0  0  0
 19 20  2  0  0  0  0
 20 21  1  0  0  0  0
 21 22  2  0  0  0  0
 22 17  1  0  0  0  0
  8 23  1  0  0  0  0
 23 24  2  0  0  0  0
 24 25  1  0  0  0  0
 25 26  2  0  0  0  0
 26 27  1  0  0  0  0
 27 28  2  0  0  0  0
 28 23  1  0  0  0  0
M  END
>  <Other ID>
EPL-BS751

>  <sub series>
diarylamines

>  <Source>
Epichem

>  <% growth M.myc at 100 uM>
-3.238

>  <% growth M.myc at 25 uM>
51.47

>  <M. Myc IC50>


>  <M. Myc IC90>


>  <MIC50>


$$$$
