Chemistry 0
  SciTegic06242012552D

 23 25  0  0  0  0            999 V2000
    3.3028   -4.6589    0.0000 C   0  0
    5.3451   -4.6583    0.0000 C   0  0
    4.3259   -4.0686    0.0000 N   0  0
    5.3451   -5.8398    0.0000 C   0  0
    3.3028   -5.8451    0.0000 C   0  0
    4.3284   -6.4293    0.0000 C   0  0
    6.3683   -6.4305    0.0000 C   0  0
    7.3914   -5.8398    0.0000 C   0  0
    8.4124   -4.0702    0.0000 C   0  0
    7.3918   -4.6582    0.0000 C   0  0
    9.4359   -4.6611    0.0000 C   0  0
    8.4190   -6.4330    0.0000 C   0  0
    9.4381   -5.8367    0.0000 C   0  0
    6.3683   -7.6120    0.0000 N   0  0
    8.4190   -7.6145    0.0000 F   0  0
   10.4590   -4.0704    0.0000 Cl  0  0
    5.3451   -8.2027    0.0000 C   0  0
    5.3451   -9.3841    0.0000 C   0  0
    6.3682   -9.9748    0.0000 N   0  0
    7.3914   -9.3841    0.0000 C   0  0
    7.3914   -8.2027    0.0000 C   0  0
    6.3682  -11.1563    0.0000 C   0  0
    7.3914  -11.7470    0.0000 C   0  0
  6  4  1  0
  5  6  2  0
  2  3  1  0
  1  5  1  0
  4  2  2  0
  3  1  2  0
  4  7  1  0
  7  8  1  0
 13 11  1  0
 12 13  2  0
  9 10  1  0
 11  9  2  0
 10  8  2  0
  8 12  1  0
  7 14  1  0
 12 15  1  0
 11 16  1  0
 20 21  1  0
 19 20  1  0
 18 19  1  0
 17 18  1  0
 21 14  1  0
 14 17  1  0
 19 22  1  0
 22 23  1  0
M  END
> <Work Package>
A

> <Target ID>
P4_A_001

> <Smiles>
CCN1CCN(CC1)C(c2cccnc2)c3ccc(Cl)cc3F

> <Status >
Ongoing

> <Target Proposed by>
Mycetos Github

> <Synthesis by>
IMSA

$$$$
Chemistry 0
  SciTegic06242012552D

 25 27  0  0  0  0            999 V2000
    9.0797   -7.3052    0.0000 C   0  0
    9.0797   -8.4914    0.0000 C   0  0
   10.1053   -9.0756    0.0000 C   0  0
   11.1220   -8.4861    0.0000 C   0  0
   11.1220   -7.3046    0.0000 C   0  0
   10.1028   -6.7149    0.0000 N   0  0
   12.1452   -9.0768    0.0000 C   0  0
   13.1683   -8.4861    0.0000 C   0  0
   13.1683   -7.3045    0.0000 C   0  0
   14.1893   -6.7165    0.0000 C   0  0
   15.2128   -7.3074    0.0000 C   0  0
   15.2128   -8.4830    0.0000 C   0  0
   14.1959   -9.0793    0.0000 C   0  0
   14.1959  -10.2608    0.0000 F   0  0
   16.2359   -6.7167    0.0000 Cl  0  0
   12.1452  -10.2583    0.0000 N   0  0
   13.1683  -10.8490    0.0000 C   0  0
   13.1683  -12.0304    0.0000 C   0  0
   12.1451  -12.6211    0.0000 N   0  0
   11.1220  -12.0304    0.0000 C   0  0
   11.1220  -10.8490    0.0000 C   0  0
   12.1451  -13.8026    0.0000 C   0  0
   13.1683  -14.3933    0.0000 C   0  0
   13.1683  -15.5747    0.0000 C   0  0
   14.1915  -16.1654    0.0000 O   0  0
  1  2  1  0
  2  3  2  0
  3  4  1  0
  4  5  2  0
  5  6  1  0
  6  1  2  0
  4  7  1  0
  7  8  1  0
  9  8  2  0
 10  9  1  0
 11 10  2  0
 12 11  1  0
 13 12  2  0
  8 13  1  0
 13 14  1  0
 11 15  1  0
  7 16  1  0
 17 16  1  0
 18 17  1  0
 19 18  1  0
 20 19  1  0
 21 20  1  0
 16 21  1  0
 19 22  1  0
 22 23  1  0
 23 24  1  0
 24 25  1  0
M  END
> <Work Package>
A

> <Target ID>
P4_A_002

> <Smiles>
OCCCN1CCN(CC1)C(c2cccnc2)c3ccc(Cl)cc3F

> <Status >
Completed - in test

> <Target Proposed by>
Mycetos Github

> <Synthesis by>
UCL

$$$$
Chemistry 0
  SciTegic06242012552D

 25 27  0  0  0  0            999 V2000
    9.0797   -6.3651    0.0000 C   0  0
    9.0797   -7.5513    0.0000 C   0  0
   10.1053   -8.1355    0.0000 C   0  0
   11.1220   -7.5460    0.0000 C   0  0
   11.1220   -6.3645    0.0000 C   0  0
   10.1028   -5.7748    0.0000 N   0  0
   12.1452   -8.1367    0.0000 C   0  0
   13.1683   -7.5460    0.0000 C   0  0
   13.1683   -6.3644    0.0000 C   0  0
   14.1893   -5.7764    0.0000 C   0  0
   15.2128   -6.3673    0.0000 C   0  0
   15.2128   -7.5429    0.0000 C   0  0
   14.1959   -8.1392    0.0000 C   0  0
   14.1959   -9.3207    0.0000 F   0  0
   16.2359   -5.7766    0.0000 Cl  0  0
   12.1452   -9.3182    0.0000 N   0  0
   13.1683   -9.9089    0.0000 C   0  0
   13.1683  -11.0903    0.0000 C   0  0
   12.1451  -11.6810    0.0000 N   0  0
   11.1220  -11.0903    0.0000 C   0  0
   11.1220   -9.9089    0.0000 C   0  0
   12.1451  -12.8625    0.0000 C   0  0
   13.1683  -13.4532    0.0000 C   0  0
   13.1683  -14.6346    0.0000 O   0  0
   14.1915  -15.2253    0.0000 C   0  0
  1  2  1  0
  2  3  2  0
  3  4  1  0
  4  5  2  0
  5  6  1  0
  6  1  2  0
  4  7  1  0
  7  8  1  0
  9  8  2  0
 10  9  1  0
 11 10  2  0
 12 11  1  0
 13 12  2  0
  8 13  1  0
 13 14  1  0
 11 15  1  0
  7 16  1  0
 17 16  1  0
 18 17  1  0
 19 18  1  0
 20 19  1  0
 21 20  1  0
 16 21  1  0
 19 22  1  0
 22 23  1  0
 23 24  1  0
 24 25  1  0
M  END
> <Work Package>
A

> <Target ID>
P4_A_003

> <Smiles>
COCCN1CCN(CC1)C(c2cccnc2)c3ccc(Cl)cc3F

> <Status >
Ongoing

> <Target Proposed by>
Mycetos Github

> <Synthesis by>
IMSA

$$$$
Chemistry 0
  SciTegic06242012552D

 26 29  0  0  0  0            999 V2000
    9.0797   -7.3052    0.0000 C   0  0
    9.0797   -8.4914    0.0000 C   0  0
   10.1053   -9.0756    0.0000 C   0  0
   11.1220   -8.4861    0.0000 C   0  0
   11.1220   -7.3046    0.0000 C   0  0
   10.1028   -6.7149    0.0000 N   0  0
   12.1452   -9.0768    0.0000 C   0  0
   13.1683   -8.4861    0.0000 C   0  0
   13.1683   -7.3045    0.0000 C   0  0
   14.1893   -6.7165    0.0000 C   0  0
   15.2128   -7.3074    0.0000 C   0  0
   15.2128   -8.4830    0.0000 C   0  0
   14.1959   -9.0793    0.0000 C   0  0
   14.1959  -10.2608    0.0000 F   0  0
   16.2359   -6.7167    0.0000 Cl  0  0
   12.1452  -10.2583    0.0000 N   0  0
   13.1683  -10.8490    0.0000 C   0  0
   13.1683  -12.0304    0.0000 C   0  0
   12.1451  -12.6211    0.0000 N   0  0
   11.1220  -12.0304    0.0000 C   0  0
   11.1220  -10.8490    0.0000 C   0  0
   12.1451  -13.8026    0.0000 C   0  0
   13.1683  -14.3933    0.0000 C   0  0
   11.2672  -14.5931    0.0000 C   0  0
   12.9227  -15.5488    0.0000 C   0  0
   11.7477  -15.6723    0.0000 C   0  0
  1  2  1  0
  2  3  2  0
  3  4  1  0
  4  5  2  0
  5  6  1  0
  6  1  2  0
  4  7  1  0
  7  8  1  0
  9  8  2  0
 10  9  1  0
 11 10  2  0
 12 11  1  0
 13 12  2  0
  8 13  1  0
 13 14  1  0
 11 15  1  0
  7 16  1  0
 17 16  1  0
 18 17  1  0
 19 18  1  0
 20 19  1  0
 21 20  1  0
 16 21  1  0
 19 22  1  0
 22 23  1  0
 26 24  1  0
 25 26  1  0
 22 24  1  0
 23 25  1  0
M  END
> <Work Package>
A

> <Target ID>
P4_A_004

> <Smiles>
Fc1cc(Cl)ccc1C(N2CCN(CC2)C3CCCC3)c4cccnc4

> <Status >
Not Started

> <Target Proposed by>
Mycetos Github

> <Synthesis by>

$$$$
Chemistry 0
  SciTegic06242012552D

 26 28  0  0  0  0            999 V2000
    9.0797   -6.6657    0.0000 C   0  0
    9.0797   -7.8519    0.0000 C   0  0
   10.1053   -8.4361    0.0000 C   0  0
   11.1220   -7.8466    0.0000 C   0  0
   11.1220   -6.6651    0.0000 C   0  0
   10.1028   -6.0754    0.0000 N   0  0
   12.1452   -8.4373    0.0000 C   0  0
   13.1683   -7.8466    0.0000 C   0  0
   13.1683   -6.6650    0.0000 C   0  0
   14.1893   -6.0770    0.0000 C   0  0
   15.2128   -6.6679    0.0000 C   0  0
   15.2128   -7.8435    0.0000 C   0  0
   14.1959   -8.4398    0.0000 C   0  0
   14.1959   -9.6213    0.0000 F   0  0
   16.2359   -6.0772    0.0000 Cl  0  0
   12.1452   -9.6188    0.0000 N   0  0
   13.1683  -10.2095    0.0000 C   0  0
   13.1683  -11.3909    0.0000 C   0  0
   12.1451  -11.9816    0.0000 N   0  0
   11.1220  -11.3909    0.0000 C   0  0
   11.1220  -10.2095    0.0000 C   0  0
   12.1451  -13.1630    0.0000 C   0  0
   13.1683  -13.7537    0.0000 N   0  0
   11.1219  -13.7537    0.0000 O   0  0
   14.1914  -13.1630    0.0000 C   0  0
   15.2146  -13.7537    0.0000 C   0  0
  1  2  1  0
  2  3  2  0
  3  4  1  0
  4  5  2  0
  5  6  1  0
  6  1  2  0
  4  7  1  0
  7  8  1  0
  9  8  2  0
 10  9  1  0
 11 10  2  0
 12 11  1  0
 13 12  2  0
  8 13  1  0
 13 14  1  0
 11 15  1  0
  7 16  1  0
 17 16  1  0
 18 17  1  0
 19 18  1  0
 20 19  1  0
 21 20  1  0
 16 21  1  0
 19 22  1  0
 22 23  1  0
 22 24  2  0
 23 25  1  0
 25 26  1  0
M  END
> <Work Package>
A

> <Target ID>
P4_A_005

> <Smiles>
CCNC(=O)N1CCN(CC1)C(c2cccnc2)c3ccc(Cl)cc3F

> <Status >
Ongoing

> <Target Proposed by>
Mycetos Github

> <Synthesis by>
UCL

$$$$
Chemistry 0
  SciTegic06242012552D

 26 28  0  0  0  0            999 V2000
    9.0797   -7.2512    0.0000 C   0  0
    9.0797   -8.4374    0.0000 C   0  0
   10.1053   -9.0216    0.0000 C   0  0
   11.1220   -8.4321    0.0000 C   0  0
   11.1220   -7.2506    0.0000 C   0  0
   10.1028   -6.6609    0.0000 N   0  0
   12.1452   -9.0228    0.0000 C   0  0
   13.1683   -8.4321    0.0000 C   0  0
   13.1683   -7.2505    0.0000 C   0  0
   14.1893   -6.6625    0.0000 C   0  0
   15.2128   -7.2534    0.0000 C   0  0
   15.2128   -8.4290    0.0000 C   0  0
   14.1959   -9.0253    0.0000 C   0  0
   14.1959  -10.2068    0.0000 F   0  0
   16.2359   -6.6627    0.0000 Cl  0  0
   12.1452  -10.2043    0.0000 N   0  0
   13.1683  -10.7949    0.0000 C   0  0
   13.1683  -11.9764    0.0000 C   0  0
   12.1451  -12.5670    0.0000 N   0  0
   11.1220  -11.9764    0.0000 C   0  0
   11.1220  -10.7949    0.0000 C   0  0
   12.1451  -13.7485    0.0000 C   0  0
   13.1683  -14.3392    0.0000 N   0  0
   14.1914  -13.7485    0.0000 C   0  0
   11.1219  -14.3392    0.0000 O   0  0
   13.1683  -15.5206    0.0000 C   0  0
  1  2  1  0
  2  3  2  0
  3  4  1  0
  4  5  2  0
  5  6  1  0
  6  1  2  0
  4  7  1  0
  7  8  1  0
  9  8  2  0
 10  9  1  0
 11 10  2  0
 12 11  1  0
 13 12  2  0
  8 13  1  0
 13 14  1  0
 11 15  1  0
  7 16  1  0
 17 16  1  0
 18 17  1  0
 19 18  1  0
 20 19  1  0
 21 20  1  0
 16 21  1  0
 19 22  1  0
 22 23  1  0
 23 24  1  0
 22 25  2  0
 23 26  1  0
M  END
> <Work Package>
A

> <Target ID>
P4_A_006

> <Smiles>
CN(C)C(=O)N1CCN(CC1)C(c2cccnc2)c3ccc(Cl)cc3F

> <Status >
Ongoing

> <Target Proposed by>
Mycetos Github

> <Synthesis by>
IMSA

$$$$
Chemistry 0
  SciTegic06242012552D

 26 28  0  0  0  0            999 V2000
    9.0797   -6.4191    0.0000 C   0  0
    9.0797   -7.6053    0.0000 C   0  0
   10.1053   -8.1895    0.0000 C   0  0
   11.1220   -7.6000    0.0000 C   0  0
   11.1220   -6.4185    0.0000 C   0  0
   10.1028   -5.8288    0.0000 N   0  0
   12.1452   -8.1907    0.0000 C   0  0
   13.1683   -7.6000    0.0000 C   0  0
   13.1683   -6.4184    0.0000 C   0  0
   14.1893   -5.8304    0.0000 C   0  0
   15.2128   -6.4213    0.0000 C   0  0
   15.2128   -7.5969    0.0000 C   0  0
   14.1959   -8.1932    0.0000 C   0  0
   14.1959   -9.3747    0.0000 F   0  0
   16.2359   -5.8306    0.0000 Cl  0  0
   12.1452   -9.3722    0.0000 N   0  0
   13.1683   -9.9629    0.0000 C   0  0
   13.1683  -11.1443    0.0000 C   0  0
   12.1451  -11.7350    0.0000 N   0  0
   11.1220  -11.1443    0.0000 C   0  0
   11.1220   -9.9629    0.0000 C   0  0
   12.1451  -12.9165    0.0000 C   0  0
   13.1683  -13.5072    0.0000 C   0  0
   13.1683  -14.6886    0.0000 N   0  0
   14.1915  -15.2793    0.0000 C   0  0
   12.1451  -15.2793    0.0000 C   0  0
  1  2  1  0
  2  3  2  0
  3  4  1  0
  4  5  2  0
  5  6  1  0
  6  1  2  0
  4  7  1  0
  7  8  1  0
  9  8  2  0
 10  9  1  0
 11 10  2  0
 12 11  1  0
 13 12  2  0
  8 13  1  0
 13 14  1  0
 11 15  1  0
  7 16  1  0
 17 16  1  0
 18 17  1  0
 19 18  1  0
 20 19  1  0
 21 20  1  0
 16 21  1  0
 19 22  1  0
 22 23  1  0
 23 24  1  0
 24 25  1  0
 24 26  1  0
M  END
> <Work Package>
A

> <Target ID>
P4_A_007

> <Smiles>
CN(C)CCN1CCN(CC1)C(c2cccnc2)c3ccc(Cl)cc3F

> <Status >
Completed - in test

> <Target Proposed by>
Mycetos Github

> <Synthesis by>
UCL

$$$$
Chemistry 0
  SciTegic06242012552D

 28 31  0  0  0  0            999 V2000
    9.0797   -6.3666    0.0000 C   0  0
    9.0797   -7.5528    0.0000 C   0  0
   10.1053   -8.1370    0.0000 C   0  0
   11.1220   -7.5475    0.0000 C   0  0
   11.1220   -6.3660    0.0000 C   0  0
   10.1028   -5.7763    0.0000 N   0  0
   12.1452   -8.1382    0.0000 C   0  0
   13.1683   -7.5475    0.0000 C   0  0
   13.1683   -6.3659    0.0000 C   0  0
   14.1893   -5.7779    0.0000 C   0  0
   15.2128   -6.3688    0.0000 C   0  0
   15.2128   -7.5444    0.0000 C   0  0
   14.1959   -8.1407    0.0000 C   0  0
   14.1959   -9.3222    0.0000 F   0  0
   16.2359   -5.7781    0.0000 Cl  0  0
   12.1452   -9.3197    0.0000 N   0  0
   13.1683   -9.9104    0.0000 C   0  0
   13.1683  -11.0918    0.0000 C   0  0
   12.1451  -11.6825    0.0000 N   0  0
   11.1220  -11.0918    0.0000 C   0  0
   11.1220   -9.9104    0.0000 C   0  0
   12.1451  -12.8640    0.0000 C   0  0
   13.1683  -13.4547    0.0000 C   0  0
   15.2112  -13.4541    0.0000 C   0  0
   14.1917  -12.8642    0.0000 C   0  0
   15.2112  -14.6359    0.0000 C   0  0
   13.1683  -14.6412    0.0000 C   0  0
   14.1943  -15.2257    0.0000 C   0  0
  1  2  1  0
  2  3  2  0
  3  4  1  0
  4  5  2  0
  5  6  1  0
  6  1  2  0
  4  7  1  0
  7  8  1  0
  9  8  2  0
 10  9  1  0
 11 10  2  0
 12 11  1  0
 13 12  2  0
  8 13  1  0
 13 14  1  0
 11 15  1  0
  7 16  1  0
 17 16  1  0
 18 17  1  0
 19 18  1  0
 20 19  1  0
 21 20  1  0
 16 21  1  0
 19 22  1  0
 22 23  1  0
 28 26  1  0
 27 28  2  0
 24 25  1  0
 26 24  2  0
 25 23  2  0
 23 27  1  0
M  END
> <Work Package>
A

> <Target ID>
P4_A_008

> <Smiles>
Fc1cc(Cl)ccc1C(N2CCN(Cc3ccccc3)CC2)c4cccnc4

> <Status >
Ongoing

> <Target Proposed by>
Mycetos Github

> <Synthesis by>
Sevenoaks

$$$$
Chemistry 0
  SciTegic06242012552D

 26 28  0  0  0  0            999 V2000
    9.0797   -6.4094    0.0000 C   0  0
    9.0797   -7.5956    0.0000 C   0  0
   10.1053   -8.1798    0.0000 C   0  0
   11.1220   -7.5903    0.0000 C   0  0
   11.1220   -6.4088    0.0000 C   0  0
   10.1028   -5.8191    0.0000 N   0  0
   12.1452   -8.1810    0.0000 C   0  0
   13.1683   -7.5903    0.0000 C   0  0
   13.1683   -6.4087    0.0000 C   0  0
   14.1893   -5.8207    0.0000 C   0  0
   15.2128   -6.4116    0.0000 C   0  0
   15.2128   -7.5872    0.0000 C   0  0
   14.1959   -8.1835    0.0000 C   0  0
   14.1959   -9.3650    0.0000 F   0  0
   16.2359   -5.8209    0.0000 Cl  0  0
   12.1452   -9.3625    0.0000 N   0  0
   13.1683   -9.9532    0.0000 C   0  0
   13.1683  -11.1346    0.0000 C   0  0
   12.1451  -11.7253    0.0000 N   0  0
   11.1220  -11.1346    0.0000 C   0  0
   11.1220   -9.9532    0.0000 C   0  0
   12.1451  -12.9068    0.0000 C   0  0
   13.1683  -13.4975    0.0000 C   0  0
   13.1683  -14.6789    0.0000 O   0  0
   14.1914  -12.9068    0.0000 O   0  0
   14.1914  -11.7253    0.0000 C   0  0
  1  2  1  0
  2  3  2  0
  3  4  1  0
  4  5  2  0
  5  6  1  0
  6  1  2  0
  4  7  1  0
  7  8  1  0
  9  8  2  0
 10  9  1  0
 11 10  2  0
 12 11  1  0
 13 12  2  0
  8 13  1  0
 13 14  1  0
 11 15  1  0
  7 16  1  0
 17 16  1  0
 18 17  1  0
 19 18  1  0
 20 19  1  0
 21 20  1  0
 16 21  1  0
 19 22  1  0
 22 23  1  0
 23 24  2  0
 23 25  1  0
 25 26  1  0
M  END
> <Work Package>
A

> <Target ID>
P4_A_009

> <Smiles>
COC(=O)CN1CCN(CC1)C(c2cccnc2)c3ccc(Cl)cc3F

> <Status >
Not Started

> <Target Proposed by>
Mycetos Github

> <Synthesis by>

$$$$
Chemistry 0
  SciTegic06242012552D

 26 28  0  0  0  0            999 V2000
    9.0797   -6.6604    0.0000 C   0  0
    9.0797   -7.8466    0.0000 C   0  0
   10.1053   -8.4308    0.0000 C   0  0
   11.1220   -7.8413    0.0000 C   0  0
   11.1220   -6.6598    0.0000 C   0  0
   10.1028   -6.0701    0.0000 N   0  0
   12.1452   -8.4320    0.0000 C   0  0
   13.1683   -7.8413    0.0000 C   0  0
   13.1683   -6.6597    0.0000 C   0  0
   14.1893   -6.0717    0.0000 C   0  0
   15.2128   -6.6626    0.0000 C   0  0
   15.2128   -7.8382    0.0000 C   0  0
   14.1959   -8.4345    0.0000 C   0  0
   14.1959   -9.6160    0.0000 F   0  0
   16.2359   -6.0719    0.0000 Cl  0  0
   12.1452   -9.6135    0.0000 N   0  0
   13.1683  -10.2042    0.0000 C   0  0
   13.1683  -11.3856    0.0000 C   0  0
   12.1451  -11.9763    0.0000 N   0  0
   11.1220  -11.3856    0.0000 C   0  0
   11.1220  -10.2042    0.0000 C   0  0
   12.1451  -13.1578    0.0000 C   0  0
   13.1683  -13.7485    0.0000 C   0  0
   13.1683  -14.9299    0.0000 O   0  0
   14.1914  -13.1578    0.0000 N   0  0
   14.1914  -11.9763    0.0000 C   0  0
  1  2  1  0
  2  3  2  0
  3  4  1  0
  4  5  2  0
  5  6  1  0
  6  1  2  0
  4  7  1  0
  7  8  1  0
  9  8  2  0
 10  9  1  0
 11 10  2  0
 12 11  1  0
 13 12  2  0
  8 13  1  0
 13 14  1  0
 11 15  1  0
  7 16  1  0
 17 16  1  0
 18 17  1  0
 19 18  1  0
 20 19  1  0
 21 20  1  0
 16 21  1  0
 19 22  1  0
 22 23  1  0
 23 24  2  0
 23 25  1  0
 25 26  1  0
M  END
> <Work Package>
A

> <Target ID>
P4_A_010

> <Smiles>
CNC(=O)CN1CCN(CC1)C(c2cccnc2)c3ccc(Cl)cc3F

> <Status >
Not Started

> <Target Proposed by>
Mycetos Github

> <Synthesis by>

$$$$
Chemistry 9
  SciTegic06242012552D

 26 28  0  0  0  0            999 V2000
    2.3383   -1.3500    0.0000 Cl  0  0
    1.2990   -0.7500    0.0000 C   0  0
    1.2990    0.7500    0.0000 C   0  0
    0.0000    1.5000    0.0000 C   0  0
   -1.2990    0.7500    0.0000 C   0  0
   -1.2990   -0.7500    0.0000 C   0  0
    0.0000   -1.5000    0.0000 C   0  0
   -2.6003    1.4977    0.0000 C   0  0
   -2.6030    2.9985    0.0000 N   0  0
   -3.9023    3.7481    0.0000 C   0  0
   -3.9029    5.2481    0.0000 C   0  0
   -2.6041    5.9986    0.0000 N   0  0
   -1.3048    5.2491    0.0000 C   0  0
   -1.3042    3.7491    0.0000 C   0  0
   -2.6016    7.4994    0.0000 C   0  0
   -1.3011    8.2485    0.0000 Si  0  0
   -1.2991    9.4485    0.0000 C   0  0
   -0.2627    7.6471    0.0000 C   0  0
   -0.2609    8.8469    0.0000 C   0  0
   -3.8990    0.7455    0.0000 C   0  0
   -5.2007    1.4909    0.0000 C   0  0
   -6.4972    0.7364    0.0000 N   0  0
   -6.4920   -0.7636    0.0000 C   0  0
   -5.1903   -1.5091    0.0000 C   0  0
   -3.8939   -0.7546    0.0000 C   0  0
    0.0000    2.7000    0.0000 F   0  0
  1  2  1  0
  2  3  2  0
  3  4  1  0
  4  5  2  0
  5  6  1  0
  6  7  2  0
  7  2  1  0
  5  8  1  0
  8  9  1  0
  9 10  1  0
 10 11  1  0
 11 12  1  0
 12 13  1  0
 13 14  1  0
 14  9  1  0
 12 15  1  0
 15 16  1  0
 16 17  1  0
 16 18  1  0
 16 19  1  0
  8 20  1  0
 20 21  1  0
 21 22  2  0
 22 23  1  0
 23 24  2  0
 24 25  1  0
 25 20  2  0
  4 26  1  0
M  END
> <Work Package>
A

> <Target ID>
P4_A_FIREWALKER

> <Smiles>
C[Si](C)(C)CN1CCN(CC1)C(c2cccnc2)c3ccc(Cl)cc3F

> <Status >
Not Started

> <Target Proposed by>
Mycetos Github

> <Synthesis by>

$$$$
Chemistry 0
  SciTegic06242012552D

 27 30  0  0  0  0            999 V2000
    9.0797   -6.4191    0.0000 C   0  0
    9.0797   -7.6053    0.0000 C   0  0
   10.1053   -8.1895    0.0000 C   0  0
   11.1220   -7.6000    0.0000 C   0  0
   11.1220   -6.4185    0.0000 C   0  0
   10.1028   -5.8288    0.0000 N   0  0
   12.1452   -8.1907    0.0000 C   0  0
   13.1683   -7.6000    0.0000 C   0  0
   13.1683   -6.4184    0.0000 C   0  0
   14.1893   -5.8304    0.0000 C   0  0
   15.2128   -6.4213    0.0000 C   0  0
   15.2128   -7.5969    0.0000 C   0  0
   14.1959   -8.1932    0.0000 C   0  0
   14.1959   -9.3747    0.0000 F   0  0
   16.2359   -5.8306    0.0000 Cl  0  0
   12.1452   -9.3722    0.0000 N   0  0
   13.1683   -9.9629    0.0000 C   0  0
   13.1683  -11.1443    0.0000 C   0  0
   12.1451  -11.7350    0.0000 N   0  0
   11.1220  -11.1443    0.0000 C   0  0
   11.1220   -9.9629    0.0000 C   0  0
   12.1451  -12.9165    0.0000 C   0  0
   13.1683  -13.5072    0.0000 C   0  0
   13.1676  -14.6850    0.0000 C   0  0
   12.1444  -15.2762    0.0000 N   0  0
   11.1178  -13.5101    0.0000 C   0  0
   11.1250  -14.6908    0.0000 C   0  0
  1  2  1  0
  2  3  2  0
  3  4  1  0
  4  5  2  0
  5  6  1  0
  6  1  2  0
  4  7  1  0
  7  8  1  0
  9  8  2  0
 10  9  1  0
 11 10  2  0
 12 11  1  0
 13 12  2  0
  8 13  1  0
 13 14  1  0
 11 15  1  0
  7 16  1  0
 17 16  1  0
 18 17  1  0
 19 18  1  0
 20 19  1  0
 21 20  1  0
 16 21  1  0
 19 22  1  0
 22 23  2  0
 27 25  1  0
 26 27  2  0
 25 24  2  0
 22 26  1  0
 24 23  1  0
M  END
> <Work Package>
B

> <Target ID>
P4_B_001

> <Smiles>
Fc1cc(Cl)ccc1C(N2CCN(CC2)c3ccncc3)c4cccnc4

> <Status >
Completed - in test

> <Target Proposed by>
Mycetos Github

> <Synthesis by>
UCL

$$$$
Chemistry 0
  SciTegic06242012552D

 27 30  0  0  0  0            999 V2000
    9.0797   -6.6604    0.0000 C   0  0
    9.0797   -7.8466    0.0000 C   0  0
   10.1053   -8.4308    0.0000 C   0  0
   11.1220   -7.8413    0.0000 C   0  0
   11.1220   -6.6598    0.0000 C   0  0
   10.1028   -6.0701    0.0000 N   0  0
   12.1452   -8.4320    0.0000 C   0  0
   13.1683   -7.8413    0.0000 C   0  0
   13.1683   -6.6597    0.0000 C   0  0
   14.1893   -6.0717    0.0000 C   0  0
   15.2128   -6.6626    0.0000 C   0  0
   15.2128   -7.8382    0.0000 C   0  0
   14.1959   -8.4345    0.0000 C   0  0
   14.1959   -9.6160    0.0000 F   0  0
   16.2359   -6.0719    0.0000 Cl  0  0
   12.1452   -9.6135    0.0000 N   0  0
   13.1683  -10.2042    0.0000 C   0  0
   13.1683  -11.3856    0.0000 C   0  0
   12.1451  -11.9763    0.0000 N   0  0
   11.1220  -11.3856    0.0000 C   0  0
   11.1220  -10.2042    0.0000 C   0  0
   12.1451  -13.1578    0.0000 C   0  0
   13.1671  -14.9268    0.0000 C   0  0
   13.1682  -13.7489    0.0000 C   0  0
   12.1436  -15.5177    0.0000 C   0  0
   11.1175  -13.7511    0.0000 N   0  0
   11.1244  -14.9318    0.0000 C   0  0
  1  2  1  0
  2  3  2  0
  3  4  1  0
  4  5  2  0
  5  6  1  0
  6  1  2  0
  4  7  1  0
  7  8  1  0
  9  8  2  0
 10  9  1  0
 11 10  2  0
 12 11  1  0
 13 12  2  0
  8 13  1  0
 13 14  1  0
 11 15  1  0
  7 16  1  0
 17 16  1  0
 18 17  1  0
 19 18  1  0
 20 19  1  0
 21 20  1  0
 16 21  1  0
 19 22  1  0
 27 25  1  0
 26 27  2  0
 23 24  1  0
 25 23  2  0
 24 22  2  0
 22 26  1  0
M  END
> <Work Package>
B

> <Target ID>
P4_B_002

> <Smiles>
Fc1cc(Cl)ccc1C(N2CCN(CC2)c3ccccn3)c4cccnc4

> <Status >
Completed - in test

> <Target Proposed by>
Mycetos Github

> <Synthesis by>
UCL

$$$$
Chemistry 0
  SciTegic06242012552D

 29 32  0  0  0  0            999 V2000
    9.0797   -6.3666    0.0000 C   0  0
    9.0797   -7.5528    0.0000 C   0  0
   10.1053   -8.1370    0.0000 C   0  0
   11.1220   -7.5475    0.0000 C   0  0
   11.1220   -6.3660    0.0000 C   0  0
   10.1028   -5.7763    0.0000 N   0  0
   12.1452   -8.1382    0.0000 C   0  0
   13.1683   -7.5475    0.0000 C   0  0
   13.1683   -6.3659    0.0000 C   0  0
   14.1893   -5.7779    0.0000 C   0  0
   15.2128   -6.3688    0.0000 C   0  0
   15.2128   -7.5444    0.0000 C   0  0
   14.1959   -8.1407    0.0000 C   0  0
   14.1959   -9.3222    0.0000 F   0  0
   16.2359   -5.7781    0.0000 Cl  0  0
   12.1452   -9.3197    0.0000 N   0  0
   13.1683   -9.9104    0.0000 C   0  0
   13.1683  -11.0918    0.0000 C   0  0
   12.1451  -11.6825    0.0000 N   0  0
   11.1220  -11.0918    0.0000 C   0  0
   11.1220   -9.9104    0.0000 C   0  0
   12.1451  -12.8640    0.0000 C   0  0
   13.1676  -13.4547    0.0000 C   0  0
   13.1676  -14.6325    0.0000 C   0  0
   12.1444  -15.2237    0.0000 C   0  0
   11.1178  -14.6383    0.0000 C   0  0
   11.1178  -13.4576    0.0000 C   0  0
   14.1908  -12.8640    0.0000 O   0  0
   14.1908  -11.6825    0.0000 C   0  0
  1  2  1  0
  2  3  2  0
  3  4  1  0
  4  5  2  0
  5  6  1  0
  6  1  2  0
  4  7  1  0
  7  8  1  0
  9  8  2  0
 10  9  1  0
 11 10  2  0
 12 11  1  0
 13 12  2  0
  8 13  1  0
 13 14  1  0
 11 15  1  0
  7 16  1  0
 17 16  1  0
 18 17  1  0
 19 18  1  0
 20 19  1  0
 21 20  1  0
 16 21  1  0
 19 22  1  0
 22 23  2  0
 24 23  1  0
 25 24  2  0
 26 25  1  0
 27 26  2  0
 22 27  1  0
 23 28  1  0
 28 29  1  0
M  END
> <Work Package>
B

> <Target ID>
P4_B_003

> <Smiles>
COc1ccccc1N2CCN(CC2)C(c3cccnc3)c4ccc(Cl)cc4F

> <Status >
Ongoing

> <Target Proposed by>
DNDI

> <Synthesis by>
IMSA

$$$$
Chemistry 0
  SciTegic06242012552D

 28 31  0  0  0  0            999 V2000
    9.0797   -6.4107    0.0000 C   0  0
    9.0797   -7.5969    0.0000 C   0  0
   10.1053   -8.1811    0.0000 C   0  0
   11.1220   -7.5916    0.0000 C   0  0
   11.1220   -6.4101    0.0000 C   0  0
   10.1028   -5.8204    0.0000 N   0  0
   12.1452   -8.1823    0.0000 C   0  0
   13.1683   -7.5916    0.0000 C   0  0
   13.1683   -6.4100    0.0000 C   0  0
   14.1893   -5.8220    0.0000 C   0  0
   15.2128   -6.4129    0.0000 C   0  0
   15.2128   -7.5885    0.0000 C   0  0
   14.1959   -8.1848    0.0000 C   0  0
   14.1959   -9.3663    0.0000 F   0  0
   16.2359   -5.8222    0.0000 Cl  0  0
   12.1452   -9.3638    0.0000 N   0  0
   13.1683   -9.9545    0.0000 C   0  0
   13.1683  -11.1359    0.0000 C   0  0
   12.1451  -11.7266    0.0000 N   0  0
   11.1220  -11.1359    0.0000 C   0  0
   11.1220   -9.9545    0.0000 C   0  0
   12.1451  -12.9081    0.0000 C   0  0
   13.1676  -13.4988    0.0000 C   0  0
   13.1676  -14.6766    0.0000 C   0  0
   12.1444  -15.2678    0.0000 C   0  0
   11.1178  -14.6824    0.0000 C   0  0
   11.1178  -13.5017    0.0000 C   0  0
   14.1908  -12.9080    0.0000 F   0  0
  1  2  1  0
  2  3  2  0
  3  4  1  0
  4  5  2  0
  5  6  1  0
  6  1  2  0
  4  7  1  0
  7  8  1  0
  9  8  2  0
 10  9  1  0
 11 10  2  0
 12 11  1  0
 13 12  2  0
  8 13  1  0
 13 14  1  0
 11 15  1  0
  7 16  1  0
 17 16  1  0
 18 17  1  0
 19 18  1  0
 20 19  1  0
 21 20  1  0
 16 21  1  0
 19 22  1  0
 22 23  2  0
 24 23  1  0
 25 24  2  0
 26 25  1  0
 27 26  2  0
 22 27  1  0
 23 28  1  0
M  END
> <Work Package>
B

> <Target ID>
P4_B_004

> <Smiles>
Fc1ccccc1N2CCN(CC2)C(c3cccnc3)c4ccc(Cl)cc4F

> <Status >
Ongoing

> <Target Proposed by>
DNDI

> <Synthesis by>
IMSA

$$$$
Chemistry 0
  SciTegic06242012552D

 31 34  0  0  0  0            999 V2000
    9.0797   -6.4107    0.0000 C   0  0
    9.0797   -7.5969    0.0000 C   0  0
   10.1053   -8.1811    0.0000 C   0  0
   11.1220   -7.5916    0.0000 C   0  0
   11.1220   -6.4101    0.0000 C   0  0
   10.1028   -5.8204    0.0000 N   0  0
   12.1452   -8.1823    0.0000 C   0  0
   13.1683   -7.5916    0.0000 C   0  0
   13.1683   -6.4100    0.0000 C   0  0
   14.1893   -5.8220    0.0000 C   0  0
   15.2128   -6.4129    0.0000 C   0  0
   15.2128   -7.5885    0.0000 C   0  0
   14.1959   -8.1848    0.0000 C   0  0
   14.1959   -9.3663    0.0000 F   0  0
   16.2359   -5.8222    0.0000 Cl  0  0
   12.1452   -9.3638    0.0000 N   0  0
   13.1683   -9.9545    0.0000 C   0  0
   13.1683  -11.1359    0.0000 C   0  0
   12.1451  -11.7266    0.0000 N   0  0
   11.1220  -11.1359    0.0000 C   0  0
   11.1220   -9.9545    0.0000 C   0  0
   12.1451  -12.9081    0.0000 C   0  0
   13.1676  -13.4988    0.0000 C   0  0
   13.1676  -14.6766    0.0000 C   0  0
   12.1444  -15.2678    0.0000 C   0  0
   11.1178  -14.6824    0.0000 C   0  0
   11.1178  -13.5017    0.0000 C   0  0
   14.1908  -12.9080    0.0000 C   0  0
   15.1097  -12.3775    0.0000 F   0  0
   14.7924  -13.9501    0.0000 F   0  0
   13.6003  -11.8853    0.0000 F   0  0
  1  2  1  0
  2  3  2  0
  3  4  1  0
  4  5  2  0
  5  6  1  0
  6  1  2  0
  4  7  1  0
  7  8  1  0
  9  8  2  0
 10  9  1  0
 11 10  2  0
 12 11  1  0
 13 12  2  0
  8 13  1  0
 13 14  1  0
 11 15  1  0
  7 16  1  0
 17 16  1  0
 18 17  1  0
 19 18  1  0
 20 19  1  0
 21 20  1  0
 16 21  1  0
 19 22  1  0
 22 23  2  0
 24 23  1  0
 25 24  2  0
 26 25  1  0
 27 26  2  0
 22 27  1  0
 28 31  1  0
 28 30  1  0
 28 29  1  0
 23 28  1  0
M  END
> <Work Package>
B

> <Target ID>
P4_B_005

> <Smiles>
Fc1cc(Cl)ccc1C(N2CCN(CC2)c3ccccc3C(F)(F)F)c4cccnc4

> <Status >
Not Started

> <Target Proposed by>
DNDI

> <Synthesis by>

$$$$
Chemistry 0
  SciTegic06242012552D

 29 32  0  0  0  0            999 V2000
    9.0797   -6.4107    0.0000 C   0  0
    9.0797   -7.5969    0.0000 C   0  0
   10.1053   -8.1811    0.0000 C   0  0
   11.1220   -7.5916    0.0000 C   0  0
   11.1220   -6.4101    0.0000 C   0  0
   10.1028   -5.8204    0.0000 N   0  0
   12.1452   -8.1823    0.0000 C   0  0
   13.1683   -7.5916    0.0000 C   0  0
   13.1683   -6.4100    0.0000 C   0  0
   14.1893   -5.8220    0.0000 C   0  0
   15.2128   -6.4129    0.0000 C   0  0
   15.2128   -7.5885    0.0000 C   0  0
   14.1959   -8.1848    0.0000 C   0  0
   14.1959   -9.3663    0.0000 F   0  0
   16.2359   -5.8222    0.0000 Cl  0  0
   12.1452   -9.3638    0.0000 N   0  0
   13.1683   -9.9545    0.0000 C   0  0
   13.1683  -11.1359    0.0000 C   0  0
   12.1451  -11.7266    0.0000 N   0  0
   11.1220  -11.1359    0.0000 C   0  0
   11.1220   -9.9545    0.0000 C   0  0
   12.1451  -12.9081    0.0000 C   0  0
   13.1676  -13.4988    0.0000 C   0  0
   13.1676  -14.6766    0.0000 C   0  0
   12.1444  -15.2678    0.0000 C   0  0
   11.1178  -14.6824    0.0000 C   0  0
   11.1178  -13.5017    0.0000 C   0  0
   14.1908  -15.2673    0.0000 O   0  0
   15.2139  -14.6766    0.0000 C   0  0
  1  2  1  0
  2  3  2  0
  3  4  1  0
  4  5  2  0
  5  6  1  0
  6  1  2  0
  4  7  1  0
  7  8  1  0
  9  8  2  0
 10  9  1  0
 11 10  2  0
 12 11  1  0
 13 12  2  0
  8 13  1  0
 13 14  1  0
 11 15  1  0
  7 16  1  0
 17 16  1  0
 18 17  1  0
 19 18  1  0
 20 19  1  0
 21 20  1  0
 16 21  1  0
 19 22  1  0
 22 23  2  0
 24 23  1  0
 25 24  2  0
 26 25  1  0
 27 26  2  0
 22 27  1  0
 24 28  1  0
 28 29  1  0
M  END
> <Work Package>
B

> <Target ID>
P4_B_006

> <Smiles>
COc1cccc(c1)N2CCN(CC2)C(c3cccnc3)c4ccc(Cl)cc4F

> <Status >
Not Started

> <Target Proposed by>
DNDI

> <Synthesis by>

$$$$
Chemistry 0
  SciTegic06242012552D

 28 31  0  0  0  0            999 V2000
    9.0797   -6.3669    0.0000 C   0  0
    9.0797   -7.5531    0.0000 C   0  0
   10.1053   -8.1373    0.0000 C   0  0
   11.1220   -7.5478    0.0000 C   0  0
   11.1220   -6.3663    0.0000 C   0  0
   10.1028   -5.7766    0.0000 N   0  0
   12.1452   -8.1385    0.0000 C   0  0
   13.1683   -7.5478    0.0000 C   0  0
   13.1683   -6.3662    0.0000 C   0  0
   14.1893   -5.7782    0.0000 C   0  0
   15.2128   -6.3691    0.0000 C   0  0
   15.2128   -7.5447    0.0000 C   0  0
   14.1959   -8.1410    0.0000 C   0  0
   14.1959   -9.3225    0.0000 F   0  0
   16.2359   -5.7784    0.0000 Cl  0  0
   12.1452   -9.3200    0.0000 N   0  0
   13.1683   -9.9107    0.0000 C   0  0
   13.1683  -11.0921    0.0000 C   0  0
   12.1451  -11.6828    0.0000 N   0  0
   11.1220  -11.0921    0.0000 C   0  0
   11.1220   -9.9107    0.0000 C   0  0
   12.1451  -12.8643    0.0000 C   0  0
   13.1676  -13.4550    0.0000 C   0  0
   13.1676  -14.6328    0.0000 C   0  0
   12.1444  -15.2240    0.0000 C   0  0
   11.1178  -14.6386    0.0000 C   0  0
   11.1178  -13.4579    0.0000 C   0  0
   14.1908  -15.2235    0.0000 F   0  0
  1  2  1  0
  2  3  2  0
  3  4  1  0
  4  5  2  0
  5  6  1  0
  6  1  2  0
  4  7  1  0
  7  8  1  0
  9  8  2  0
 10  9  1  0
 11 10  2  0
 12 11  1  0
 13 12  2  0
  8 13  1  0
 13 14  1  0
 11 15  1  0
  7 16  1  0
 17 16  1  0
 18 17  1  0
 19 18  1  0
 20 19  1  0
 21 20  1  0
 16 21  1  0
 19 22  1  0
 22 23  2  0
 24 23  1  0
 25 24  2  0
 26 25  1  0
 27 26  2  0
 22 27  1  0
 24 28  1  0
M  END
> <Work Package>
B

> <Target ID>
P4_B_007

> <Smiles>
Fc1cccc(c1)N2CCN(CC2)C(c3cccnc3)c4ccc(Cl)cc4F

> <Status >
Not Started

> <Target Proposed by>
DNDI

> <Synthesis by>

$$$$
Chemistry 0
  SciTegic06242012552D

 31 34  0  0  0  0            999 V2000
    9.0797   -6.3669    0.0000 C   0  0
    9.0797   -7.5531    0.0000 C   0  0
   10.1053   -8.1373    0.0000 C   0  0
   11.1220   -7.5478    0.0000 C   0  0
   11.1220   -6.3663    0.0000 C   0  0
   10.1028   -5.7766    0.0000 N   0  0
   12.1452   -8.1385    0.0000 C   0  0
   13.1683   -7.5478    0.0000 C   0  0
   13.1683   -6.3662    0.0000 C   0  0
   14.1893   -5.7782    0.0000 C   0  0
   15.2128   -6.3691    0.0000 C   0  0
   15.2128   -7.5447    0.0000 C   0  0
   14.1959   -8.1410    0.0000 C   0  0
   14.1959   -9.3225    0.0000 F   0  0
   16.2359   -5.7784    0.0000 Cl  0  0
   12.1452   -9.3200    0.0000 N   0  0
   13.1683   -9.9107    0.0000 C   0  0
   13.1683  -11.0920    0.0000 C   0  0
   12.1451  -11.6828    0.0000 N   0  0
   11.1220  -11.0920    0.0000 C   0  0
   11.1220   -9.9107    0.0000 C   0  0
   12.1451  -12.8643    0.0000 C   0  0
   13.1676  -13.4550    0.0000 C   0  0
   13.1676  -14.6328    0.0000 C   0  0
   12.1444  -15.2240    0.0000 C   0  0
   11.1178  -14.6386    0.0000 C   0  0
   11.1178  -13.4579    0.0000 C   0  0
   14.1908  -15.2235    0.0000 C   0  0
   15.1097  -15.7540    0.0000 F   0  0
   13.5891  -16.2656    0.0000 F   0  0
   14.7813  -14.2007    0.0000 F   0  0
  1  2  1  0
  2  3  2  0
  3  4  1  0
  4  5  2  0
  5  6  1  0
  6  1  2  0
  4  7  1  0
  7  8  1  0
  9  8  2  0
 10  9  1  0
 11 10  2  0
 12 11  1  0
 13 12  2  0
  8 13  1  0
 13 14  1  0
 11 15  1  0
  7 16  1  0
 17 16  1  0
 18 17  1  0
 19 18  1  0
 20 19  1  0
 21 20  1  0
 16 21  1  0
 19 22  1  0
 22 23  2  0
 24 23  1  0
 25 24  2  0
 26 25  1  0
 27 26  2  0
 22 27  1  0
 28 31  1  0
 28 30  1  0
 28 29  1  0
 24 28  1  0
M  END
> <Work Package>
B

> <Target ID>
P4_B_008

> <Smiles>
Fc1cc(Cl)ccc1C(N2CCN(CC2)c3cccc(c3)C(F)(F)F)c4cccnc4

> <Status >
Not Started

> <Target Proposed by>
DNDI

> <Synthesis by>

$$$$
Chemistry 0
  SciTegic06242012552D

 29 32  0  0  0  0            999 V2000
    9.0797   -6.3139    0.0000 C   0  0
    9.0797   -7.5001    0.0000 C   0  0
   10.1053   -8.0843    0.0000 C   0  0
   11.1220   -7.4948    0.0000 C   0  0
   11.1220   -6.3133    0.0000 C   0  0
   10.1028   -5.7236    0.0000 N   0  0
   12.1452   -8.0855    0.0000 C   0  0
   13.1683   -7.4948    0.0000 C   0  0
   13.1683   -6.3132    0.0000 C   0  0
   14.1893   -5.7252    0.0000 C   0  0
   15.2128   -6.3161    0.0000 C   0  0
   15.2128   -7.4917    0.0000 C   0  0
   14.1959   -8.0880    0.0000 C   0  0
   14.1959   -9.2695    0.0000 F   0  0
   16.2359   -5.7254    0.0000 Cl  0  0
   12.1452   -9.2670    0.0000 N   0  0
   13.1683   -9.8577    0.0000 C   0  0
   13.1683  -11.0390    0.0000 C   0  0
   12.1451  -11.6298    0.0000 N   0  0
   11.1220  -11.0390    0.0000 C   0  0
   11.1220   -9.8577    0.0000 C   0  0
   12.1451  -12.8113    0.0000 C   0  0
   13.1676  -13.4020    0.0000 C   0  0
   13.1676  -14.5798    0.0000 C   0  0
   12.1444  -15.1710    0.0000 C   0  0
   11.1178  -14.5856    0.0000 C   0  0
   11.1178  -13.4049    0.0000 C   0  0
   14.1908  -15.1706    0.0000 C   0  0
   15.2136  -15.7611    0.0000 N   0  0
  1  2  1  0
  2  3  2  0
  3  4  1  0
  4  5  2  0
  5  6  1  0
  6  1  2  0
  4  7  1  0
  7  8  1  0
  9  8  2  0
 10  9  1  0
 11 10  2  0
 12 11  1  0
 13 12  2  0
  8 13  1  0
 13 14  1  0
 11 15  1  0
  7 16  1  0
 17 16  1  0
 18 17  1  0
 19 18  1  0
 20 19  1  0
 21 20  1  0
 16 21  1  0
 19 22  1  0
 22 23  2  0
 24 23  1  0
 25 24  2  0
 26 25  1  0
 27 26  2  0
 22 27  1  0
 28 29  3  0
 24 28  1  0
M  END
> <Work Package>
B

> <Target ID>
P4_B_009

> <Smiles>
Fc1cc(Cl)ccc1C(N2CCN(CC2)c3cccc(c3)C#N)c4cccnc4

> <Status >
Not Started

> <Target Proposed by>
DNDI

> <Synthesis by>

$$$$
Chemistry 0
  SciTegic06242012552D

 28 31  0  0  0  0            999 V2000
    9.0797   -6.3438    0.0000 C   0  0
    9.0797   -7.5300    0.0000 C   0  0
   10.1053   -8.1142    0.0000 C   0  0
   11.1220   -7.5247    0.0000 C   0  0
   11.1220   -6.3432    0.0000 C   0  0
   10.1028   -5.7535    0.0000 N   0  0
   12.1452   -8.1154    0.0000 C   0  0
   13.1683   -7.5247    0.0000 C   0  0
   13.1683   -6.3431    0.0000 C   0  0
   14.1893   -5.7551    0.0000 C   0  0
   15.2128   -6.3460    0.0000 C   0  0
   15.2128   -7.5216    0.0000 C   0  0
   14.1959   -8.1179    0.0000 C   0  0
   14.1959   -9.2994    0.0000 F   0  0
   16.2359   -5.7553    0.0000 Cl  0  0
   12.1452   -9.2969    0.0000 N   0  0
   13.1683   -9.8876    0.0000 C   0  0
   13.1683  -11.0689    0.0000 C   0  0
   12.1451  -11.6597    0.0000 N   0  0
   11.1220  -11.0689    0.0000 C   0  0
   11.1220   -9.8876    0.0000 C   0  0
   12.1451  -12.8412    0.0000 C   0  0
   13.1676  -13.4319    0.0000 C   0  0
   13.1676  -14.6097    0.0000 C   0  0
   12.1444  -15.2009    0.0000 C   0  0
   11.1178  -14.6155    0.0000 C   0  0
   11.1178  -13.4348    0.0000 C   0  0
   12.1444  -16.3824    0.0000 F   0  0
  1  2  1  0
  2  3  2  0
  3  4  1  0
  4  5  2  0
  5  6  1  0
  6  1  2  0
  4  7  1  0
  7  8  1  0
  9  8  2  0
 10  9  1  0
 11 10  2  0
 12 11  1  0
 13 12  2  0
  8 13  1  0
 13 14  1  0
 11 15  1  0
  7 16  1  0
 17 16  1  0
 18 17  1  0
 19 18  1  0
 20 19  1  0
 21 20  1  0
 16 21  1  0
 19 22  1  0
 22 23  2  0
 24 23  1  0
 25 24  2  0
 26 25  1  0
 27 26  2  0
 22 27  1  0
 25 28  1  0
M  END
> <Work Package>
B

> <Target ID>
P4_B_010

> <Smiles>
Fc1ccc(cc1)N2CCN(CC2)C(c3cccnc3)c4ccc(Cl)cc4F

> <Status >
Ongoing

> <Target Proposed by>
DNDI

> <Synthesis by>
UCL

$$$$
Chemistry 0
  SciTegic06242012552D

 31 34  0  0  0  0            999 V2000
    9.0797   -5.7759    0.0000 C   0  0
    9.0797   -6.9621    0.0000 C   0  0
   10.1053   -7.5463    0.0000 C   0  0
   11.1220   -6.9568    0.0000 C   0  0
   11.1220   -5.7753    0.0000 C   0  0
   10.1028   -5.1856    0.0000 N   0  0
   12.1452   -7.5475    0.0000 C   0  0
   13.1683   -6.9568    0.0000 C   0  0
   13.1683   -5.7752    0.0000 C   0  0
   14.1893   -5.1872    0.0000 C   0  0
   15.2128   -5.7781    0.0000 C   0  0
   15.2128   -6.9537    0.0000 C   0  0
   14.1959   -7.5500    0.0000 C   0  0
   14.1959   -8.7315    0.0000 F   0  0
   16.2359   -5.1874    0.0000 Cl  0  0
   12.1452   -8.7290    0.0000 N   0  0
   13.1683   -9.3197    0.0000 C   0  0
   13.1683  -10.5010    0.0000 C   0  0
   12.1451  -11.0918    0.0000 N   0  0
   11.1220  -10.5010    0.0000 C   0  0
   11.1220   -9.3197    0.0000 C   0  0
   12.1451  -12.2733    0.0000 C   0  0
   13.1676  -12.8640    0.0000 C   0  0
   13.1676  -14.0418    0.0000 C   0  0
   12.1444  -14.6330    0.0000 C   0  0
   11.1178  -14.0475    0.0000 C   0  0
   11.1178  -12.8669    0.0000 C   0  0
   12.1444  -15.8144    0.0000 C   0  0
   12.1444  -16.8755    0.0000 F   0  0
   10.9411  -15.8144    0.0000 F   0  0
   13.3254  -15.8144    0.0000 F   0  0
  1  2  1  0
  2  3  2  0
  3  4  1  0
  4  5  2  0
  5  6  1  0
  6  1  2  0
  4  7  1  0
  7  8  1  0
  9  8  2  0
 10  9  1  0
 11 10  2  0
 12 11  1  0
 13 12  2  0
  8 13  1  0
 13 14  1  0
 11 15  1  0
  7 16  1  0
 17 16  1  0
 18 17  1  0
 19 18  1  0
 20 19  1  0
 21 20  1  0
 16 21  1  0
 19 22  1  0
 22 23  2  0
 24 23  1  0
 25 24  2  0
 26 25  1  0
 27 26  2  0
 22 27  1  0
 28 31  1  0
 28 30  1  0
 28 29  1  0
 25 28  1  0
M  END
> <Work Package>
B

> <Target ID>
P4_B_011

> <Smiles>
Fc1cc(Cl)ccc1C(N2CCN(CC2)c3ccc(cc3)C(F)(F)F)c4cccnc4

> <Status >
Not Started

> <Target Proposed by>
DNDI

> <Synthesis by>

$$$$
Chemistry 0
  SciTegic06242012552D

 29 32  0  0  0  0            999 V2000
    9.0797   -5.7247    0.0000 C   0  0
    9.0797   -6.9109    0.0000 C   0  0
   10.1053   -7.4951    0.0000 C   0  0
   11.1220   -6.9056    0.0000 C   0  0
   11.1220   -5.7241    0.0000 C   0  0
   10.1028   -5.1344    0.0000 N   0  0
   12.1452   -7.4963    0.0000 C   0  0
   13.1683   -6.9056    0.0000 C   0  0
   13.1683   -5.7240    0.0000 C   0  0
   14.1893   -5.1360    0.0000 C   0  0
   15.2128   -5.7269    0.0000 C   0  0
   15.2128   -6.9025    0.0000 C   0  0
   14.1959   -7.4988    0.0000 C   0  0
   14.1959   -8.6803    0.0000 F   0  0
   16.2359   -5.1362    0.0000 Cl  0  0
   12.1452   -8.6778    0.0000 N   0  0
   13.1683   -9.2685    0.0000 C   0  0
   13.1683  -10.4498    0.0000 C   0  0
   12.1451  -11.0406    0.0000 N   0  0
   11.1220  -10.4498    0.0000 C   0  0
   11.1220   -9.2685    0.0000 C   0  0
   12.1451  -12.2221    0.0000 C   0  0
   13.1676  -12.8128    0.0000 C   0  0
   13.1676  -13.9906    0.0000 C   0  0
   12.1444  -14.5818    0.0000 C   0  0
   11.1178  -13.9963    0.0000 C   0  0
   11.1178  -12.8157    0.0000 C   0  0
   12.1444  -15.7632    0.0000 C   0  0
   12.1444  -16.9443    0.0000 N   0  0
  1  2  1  0
  2  3  2  0
  3  4  1  0
  4  5  2  0
  5  6  1  0
  6  1  2  0
  4  7  1  0
  7  8  1  0
  9  8  2  0
 10  9  1  0
 11 10  2  0
 12 11  1  0
 13 12  2  0
  8 13  1  0
 13 14  1  0
 11 15  1  0
  7 16  1  0
 17 16  1  0
 18 17  1  0
 19 18  1  0
 20 19  1  0
 21 20  1  0
 16 21  1  0
 19 22  1  0
 22 23  2  0
 24 23  1  0
 25 24  2  0
 26 25  1  0
 27 26  2  0
 22 27  1  0
 28 29  3  0
 25 28  1  0
M  END
> <Work Package>
B

> <Target ID>
P4_B_012

> <Smiles>
Fc1cc(Cl)ccc1C(N2CCN(CC2)c3ccc(cc3)C#N)c4cccnc4

> <Status >
Not Started

> <Target Proposed by>
DNDI

> <Synthesis by>

$$$$
Chemistry 0
  SciTegic06242012552D

 29 32  0  0  0  0            999 V2000
    9.0797   -5.7534    0.0000 C   0  0
    9.0797   -6.9396    0.0000 C   0  0
   10.1053   -7.5238    0.0000 C   0  0
   11.1220   -6.9343    0.0000 C   0  0
   11.1220   -5.7528    0.0000 C   0  0
   10.1028   -5.1631    0.0000 N   0  0
   12.1452   -7.5250    0.0000 C   0  0
   13.1683   -6.9343    0.0000 C   0  0
   13.1683   -5.7527    0.0000 C   0  0
   14.1893   -5.1647    0.0000 C   0  0
   15.2128   -5.7556    0.0000 C   0  0
   15.2128   -6.9312    0.0000 C   0  0
   14.1959   -7.5275    0.0000 C   0  0
   14.1959   -8.7090    0.0000 F   0  0
   16.2359   -5.1649    0.0000 Cl  0  0
   12.1452   -8.7065    0.0000 N   0  0
   13.1683   -9.2972    0.0000 C   0  0
   13.1683  -10.4785    0.0000 C   0  0
   12.1451  -11.0693    0.0000 N   0  0
   11.1220  -10.4785    0.0000 C   0  0
   11.1220   -9.2972    0.0000 C   0  0
   12.1451  -12.2508    0.0000 C   0  0
   13.1676  -12.8415    0.0000 C   0  0
   13.1676  -14.0193    0.0000 C   0  0
   12.1444  -14.6105    0.0000 C   0  0
   11.1178  -14.0250    0.0000 C   0  0
   11.1178  -12.8444    0.0000 C   0  0
   12.1444  -15.7920    0.0000 O   0  0
   13.1676  -16.3827    0.0000 C   0  0
  1  2  1  0
  2  3  2  0
  3  4  1  0
  4  5  2  0
  5  6  1  0
  6  1  2  0
  4  7  1  0
  7  8  1  0
  9  8  2  0
 10  9  1  0
 11 10  2  0
 12 11  1  0
 13 12  2  0
  8 13  1  0
 13 14  1  0
 11 15  1  0
  7 16  1  0
 17 16  1  0
 18 17  1  0
 19 18  1  0
 20 19  1  0
 21 20  1  0
 16 21  1  0
 19 22  1  0
 22 23  2  0
 24 23  1  0
 25 24  2  0
 26 25  1  0
 27 26  2  0
 22 27  1  0
 25 28  1  0
 28 29  1  0
M  END
> <Work Package>
B

> <Target ID>
P4_B_013

> <Smiles>
COc1ccc(cc1)N2CCN(CC2)C(c3cccnc3)c4ccc(Cl)cc4F

> <Status >
Completed - in test

> <Target Proposed by>
DNDI

> <Synthesis by>
UCL

$$$$
Chemistry 0
  SciTegic06242012552D

 26 29  0  0  0  0            999 V2000
    9.0797   -6.6604    0.0000 C   0  0
    9.0797   -7.8466    0.0000 C   0  0
   10.1053   -8.4308    0.0000 C   0  0
   11.1220   -7.8413    0.0000 C   0  0
   11.1220   -6.6598    0.0000 C   0  0
   10.1028   -6.0701    0.0000 N   0  0
   12.1452   -8.4320    0.0000 C   0  0
   13.1683   -7.8413    0.0000 C   0  0
   13.1683   -6.6597    0.0000 C   0  0
   14.1893   -6.0717    0.0000 C   0  0
   15.2128   -6.6626    0.0000 C   0  0
   15.2128   -7.8382    0.0000 C   0  0
   14.1959   -8.4345    0.0000 C   0  0
   14.1959   -9.6160    0.0000 F   0  0
   16.2359   -6.0719    0.0000 Cl  0  0
   12.1452   -9.6135    0.0000 N   0  0
   13.1683  -10.2042    0.0000 C   0  0
   13.1683  -11.3856    0.0000 C   0  0
   12.1451  -11.9763    0.0000 N   0  0
   11.1220  -11.3856    0.0000 C   0  0
   11.1220  -10.2042    0.0000 C   0  0
   12.1451  -13.1578    0.0000 C   0  0
   13.1004  -13.8519    0.0000 N   0  0
   12.7355  -14.9750    0.0000 C   0  0
   11.5547  -14.9750    0.0000 C   0  0
   11.1898  -13.8519    0.0000 O   0  0
  1  2  1  0
  2  3  2  0
  3  4  1  0
  4  5  2  0
  5  6  1  0
  6  1  2  0
  4  7  1  0
  7  8  1  0
  9  8  2  0
 10  9  1  0
 11 10  2  0
 12 11  1  0
 13 12  2  0
  8 13  1  0
 13 14  1  0
 11 15  1  0
  7 16  1  0
 17 16  1  0
 18 17  1  0
 19 18  1  0
 20 19  1  0
 21 20  1  0
 16 21  1  0
 19 22  1  0
 25 26  1  0
 24 25  2  0
 23 24  1  0
 23 22  2  0
 26 22  1  0
M  END
> <Work Package>
B

> <Target ID>
P4_B_014

> <Smiles>
Fc1cc(Cl)ccc1C(N2CCN(CC2)c3occn3)c4cccnc4

> <Status >
Not Started

> <Target Proposed by>
DNDI

> <Synthesis by>

$$$$
Chemistry 0
  SciTegic06242012552D

 27 30  0  0  0  0            999 V2000
    9.0797   -6.6638    0.0000 C   0  0
    9.0797   -7.8500    0.0000 C   0  0
   10.1053   -8.4342    0.0000 C   0  0
   11.1220   -7.8447    0.0000 C   0  0
   11.1220   -6.6632    0.0000 C   0  0
   10.1028   -6.0735    0.0000 N   0  0
   12.1452   -8.4354    0.0000 C   0  0
   13.1683   -7.8447    0.0000 C   0  0
   13.1683   -6.6631    0.0000 C   0  0
   14.1893   -6.0751    0.0000 C   0  0
   15.2128   -6.6660    0.0000 C   0  0
   15.2128   -7.8416    0.0000 C   0  0
   14.1959   -8.4379    0.0000 C   0  0
   14.1959   -9.6194    0.0000 F   0  0
   16.2359   -6.0753    0.0000 Cl  0  0
   12.1452   -9.6169    0.0000 N   0  0
   13.1683  -10.2076    0.0000 C   0  0
   13.1683  -11.3890    0.0000 C   0  0
   12.1451  -11.9797    0.0000 N   0  0
   11.1220  -11.3890    0.0000 C   0  0
   11.1220  -10.2076    0.0000 C   0  0
   12.1451  -13.1612    0.0000 C   0  0
   13.1671  -14.9302    0.0000 N   0  0
   13.1682  -13.7523    0.0000 C   0  0
   12.1436  -15.5211    0.0000 C   0  0
   11.1175  -13.7545    0.0000 C   0  0
   11.1244  -14.9352    0.0000 C   0  0
  1  2  1  0
  2  3  2  0
  3  4  1  0
  4  5  2  0
  5  6  1  0
  6  1  2  0
  4  7  1  0
  7  8  1  0
  9  8  2  0
 10  9  1  0
 11 10  2  0
 12 11  1  0
 13 12  2  0
  8 13  1  0
 13 14  1  0
 11 15  1  0
  7 16  1  0
 17 16  1  0
 18 17  1  0
 19 18  1  0
 20 19  1  0
 21 20  1  0
 16 21  1  0
 19 22  1  0
 27 25  1  0
 26 27  2  0
 23 24  1  0
 25 23  2  0
 24 22  2  0
 22 26  1  0
M  END
> <Work Package>
B

> <Target ID>
P4_B_015

> <Smiles>
Fc1cc(Cl)ccc1C(N2CCN(CC2)c3cccnc3)c4cccnc4

> <Status >
Not Started

> <Target Proposed by>
DNDI

> <Synthesis by>

$$$$
Chemistry 0
  SciTegic06242012552D

 26 28  0  0  0  0            999 V2000
    9.0797   -6.6638    0.0000 C   0  0
    9.0797   -7.8500    0.0000 C   0  0
   10.1053   -8.4342    0.0000 C   0  0
   11.1220   -7.8447    0.0000 C   0  0
   11.1220   -6.6632    0.0000 C   0  0
   10.1028   -6.0735    0.0000 N   0  0
   12.1452   -8.4354    0.0000 C   0  0
   13.1683   -7.8447    0.0000 C   0  0
   13.1683   -6.6631    0.0000 C   0  0
   14.1893   -6.0751    0.0000 C   0  0
   15.2128   -6.6660    0.0000 C   0  0
   15.2128   -7.8416    0.0000 C   0  0
   14.1959   -8.4379    0.0000 C   0  0
   14.1959   -9.6194    0.0000 F   0  0
   16.2359   -6.0753    0.0000 Cl  0  0
   12.1452   -9.6169    0.0000 N   0  0
   13.1683  -10.2076    0.0000 C   0  0
   13.1683  -11.3890    0.0000 C   0  0
   12.1451  -11.9797    0.0000 N   0  0
   11.1220  -11.3890    0.0000 C   0  0
   11.1220  -10.2076    0.0000 C   0  0
   12.1451  -13.1612    0.0000 C   0  0
   13.1683  -13.7519    0.0000 O   0  0
   11.1219  -13.7519    0.0000 O   0  0
   14.1914  -13.1612    0.0000 C   0  0
   15.2146  -13.7519    0.0000 C   0  0
  1  2  1  0
  2  3  2  0
  3  4  1  0
  4  5  2  0
  5  6  1  0
  6  1  2  0
  4  7  1  0
  7  8  1  0
  9  8  2  0
 10  9  1  0
 11 10  2  0
 12 11  1  0
 13 12  2  0
  8 13  1  0
 13 14  1  0
 11 15  1  0
  7 16  1  0
 17 16  1  0
 18 17  1  0
 19 18  1  0
 20 19  1  0
 21 20  1  0
 16 21  1  0
 19 22  1  0
 22 23  1  0
 22 24  2  0
 23 25  1  0
 25 26  1  0
M  END
> <Work Package>
B

> <Target ID>
P4_B_DM43B

> <Smiles>

> <Status >
Completed - in test

> <Target Proposed by>
UCL

> <Synthesis by>
UCL

$$$$
Chemistry 0
  SciTegic06242012552D

 21 23  0  0  0  0            999 V2000
    9.0797   -6.4107    0.0000 C   0  0
    9.0797   -7.5969    0.0000 C   0  0
   10.1053   -8.1811    0.0000 C   0  0
   11.1220   -7.5916    0.0000 C   0  0
   11.1220   -6.4101    0.0000 C   0  0
   10.1028   -5.8204    0.0000 N   0  0
   12.1452   -8.1823    0.0000 C   0  0
   13.1683   -7.5916    0.0000 C   0  0
   13.1683   -6.4100    0.0000 C   0  0
   14.1893   -5.8220    0.0000 C   0  0
   15.2128   -6.4129    0.0000 C   0  0
   15.2128   -7.5885    0.0000 C   0  0
   14.1959   -8.1848    0.0000 C   0  0
   14.1959   -9.3663    0.0000 F   0  0
   16.2359   -5.8222    0.0000 Cl  0  0
   12.1452   -9.3638    0.0000 N   0  0
   13.1683   -9.9545    0.0000 C   0  0
   13.1683  -11.1359    0.0000 C   0  0
   12.1451  -11.7266    0.0000 O   0  0
   11.1220  -11.1359    0.0000 C   0  0
   11.1220   -9.9545    0.0000 C   0  0
  1  2  1  0
  2  3  2  0
  3  4  1  0
  4  5  2  0
  5  6  1  0
  6  1  2  0
  4  7  1  0
  7  8  1  0
  9  8  2  0
 10  9  1  0
 11 10  2  0
 12 11  1  0
 13 12  2  0
  8 13  1  0
 13 14  1  0
 11 15  1  0
  7 16  1  0
 17 16  1  0
 18 17  1  0
 19 18  1  0
 20 19  1  0
 21 20  1  0
 16 21  1  0
M  END
> <Work Package>
C

> <Target ID>
P4_C_001

> <Smiles>
Fc1cc(Cl)ccc1C(N2CCOCC2)c3cccnc3

> <Status >
Completed - in test

> <Target Proposed by>
DNDI

> <Synthesis by>
UCL

$$$$
Chemistry 0
  SciTegic06242012552D

 23 25  0  0  0  0            999 V2000
    9.0797  -12.6372    0.0000 C   0  0
    9.0797  -13.8234    0.0000 C   0  0
   10.1053  -14.4076    0.0000 C   0  0
   11.1220  -13.8181    0.0000 C   0  0
   11.1220  -12.6366    0.0000 C   0  0
   10.1028  -12.0469    0.0000 N   0  0
   12.1452  -14.4088    0.0000 C   0  0
   13.1683  -13.8181    0.0000 C   0  0
   13.1683  -12.6365    0.0000 C   0  0
   14.1893  -12.0485    0.0000 C   0  0
   15.2128  -12.6394    0.0000 C   0  0
   15.2128  -13.8150    0.0000 C   0  0
   14.1959  -14.4113    0.0000 C   0  0
   14.1959  -15.5928    0.0000 F   0  0
   16.2359  -12.0487    0.0000 Cl  0  0
   12.1452  -15.5903    0.0000 N   0  0
   13.1683  -16.1810    0.0000 C   0  0
   13.1683  -17.3624    0.0000 C   0  0
   12.1451  -17.9531    0.0000 C   0  0
   11.1220  -17.3624    0.0000 C   0  0
   11.1220  -16.1810    0.0000 C   0  0
   12.1451  -19.1346    0.0000 F   0  0
   11.1500  -18.6000    0.0000 F   0  0
  1  2  1  0
  2  3  2  0
  3  4  1  0
  4  5  2  0
  5  6  1  0
  6  1  2  0
  4  7  1  0
  7  8  1  0
  9  8  2  0
 10  9  1  0
 11 10  2  0
 12 11  1  0
 13 12  2  0
  8 13  1  0
 13 14  1  0
 11 15  1  0
  7 16  1  0
 17 16  1  0
 18 17  1  0
 19 18  1  0
 20 19  1  0
 21 20  1  0
 16 21  1  0
 19 22  1  0
 19 23  1  0
M  END
> <Work Package>
C

> <Target ID>
P4_C_002

> <Smiles>
Fc1cc(Cl)ccc1C(N2CCC(F)(F)CC2)c3cccnc3

> <Status >
Completed - in test

> <Target Proposed by>
DNDI

> <Synthesis by>
UCL

$$$$
Chemistry 0
  SciTegic06242012552D

 21 23  0  0  0  0            999 V2000
    9.0797  -12.6372    0.0000 C   0  0
    9.0797  -13.8234    0.0000 C   0  0
   10.1053  -14.4076    0.0000 C   0  0
   11.1220  -13.8181    0.0000 C   0  0
   11.1220  -12.6366    0.0000 C   0  0
   10.1028  -12.0469    0.0000 N   0  0
   12.1452  -14.4088    0.0000 C   0  0
   13.1683  -13.8181    0.0000 C   0  0
   13.1683  -12.6365    0.0000 C   0  0
   14.1893  -12.0485    0.0000 C   0  0
   15.2128  -12.6394    0.0000 C   0  0
   15.2128  -13.8150    0.0000 C   0  0
   14.1959  -14.4113    0.0000 C   0  0
   14.1959  -15.5928    0.0000 F   0  0
   16.2359  -12.0487    0.0000 Cl  0  0
   12.1452  -15.5903    0.0000 N   0  0
   13.1683  -16.1810    0.0000 C   0  0
   13.1683  -17.3624    0.0000 C   0  0
   12.1451  -17.9531    0.0000 C   0  0
   11.1220  -17.3624    0.0000 C   0  0
   11.1220  -16.1810    0.0000 C   0  0
  1  2  1  0
  2  3  2  0
  3  4  1  0
  4  5  2  0
  5  6  1  0
  6  1  2  0
  4  7  1  0
  7  8  1  0
  9  8  2  0
 10  9  1  0
 11 10  2  0
 12 11  1  0
 13 12  2  0
  8 13  1  0
 13 14  1  0
 11 15  1  0
  7 16  1  0
 17 16  1  0
 18 17  1  0
 19 18  1  0
 20 19  1  0
 21 20  1  0
 16 21  1  0
M  END
> <Work Package>
C

> <Target ID>
P4_C_003

> <Smiles>
Fc1cc(Cl)ccc1C(N2CCCCC2)c3cccnc3

> <Status >
Completed - in test

> <Target Proposed by>
DNDI

> <Synthesis by>
UCL

$$$$
Chemistry 0
  SciTegic06242012552D

 28 31  0  0  0  0            999 V2000
    9.0797  -12.5052    0.0000 C   0  0
    9.0797  -13.6914    0.0000 C   0  0
   10.1053  -14.2756    0.0000 C   0  0
   11.1220  -13.6861    0.0000 C   0  0
   11.1220  -12.5046    0.0000 C   0  0
   10.1028  -11.9149    0.0000 N   0  0
   12.1452  -14.2768    0.0000 C   0  0
   13.1683  -13.6861    0.0000 C   0  0
   13.1683  -12.5045    0.0000 C   0  0
   14.1893  -11.9165    0.0000 C   0  0
   15.2128  -12.5074    0.0000 C   0  0
   15.2128  -13.6830    0.0000 C   0  0
   14.1959  -14.2793    0.0000 C   0  0
   14.1959  -15.4608    0.0000 F   0  0
   16.2359  -11.9167    0.0000 Cl  0  0
   12.1452  -15.4583    0.0000 N   0  0
   11.1371  -16.0766    0.0000 C   0  0
   10.9930  -17.2498    0.0000 C   0  0
   11.8284  -18.0852    0.0000 N   0  0
   12.9951  -17.9749    0.0000 C   0  0
   13.6281  -16.9812    0.0000 C   0  0
   13.2486  -15.8610    0.0000 C   0  0
   11.5226  -19.2263    0.0000 C   0  0
   12.0519  -21.1995    0.0000 C   0  0
   12.3579  -20.0621    0.0000 C   0  0
   10.9104  -21.5054    0.0000 C   0  0
   10.3765  -19.5334    0.0000 C   0  0
   10.0775  -20.6757    0.0000 C   0  0
  1  2  1  0
  2  3  2  0
  3  4  1  0
  4  5  2  0
  5  6  1  0
  6  1  2  0
  4  7  1  0
  7  8  1  0
  9  8  2  0
 10  9  1  0
 11 10  2  0
 12 11  1  0
 13 12  2  0
  8 13  1  0
 13 14  1  0
 11 15  1  0
  7 16  1  0
 17 16  1  0
 17 18  1  0
 18 19  1  0
 20 19  1  0
 21 20  1  0
 22 21  1  0
 16 22  1  0
 19 23  1  0
 28 26  1  0
 27 28  2  0
 24 25  1  0
 26 24  2  0
 25 23  2  0
 23 27  1  0
M  END
> <Work Package>
C

> <Target ID>
P4_C_004

> <Smiles>
Fc1cc(Cl)ccc1C(N2CCCN(CC2)c3ccccc3)c4cccnc4

> <Status >
Not Started

> <Target Proposed by>
DNDI

> <Synthesis by>

$$$$
Chemistry 0
  SciTegic06242012552D

 27 29  0  0  0  0            999 V2000
    9.0797  -10.8255    0.0000 C   0  0
    9.0797  -12.0117    0.0000 C   0  0
   10.1053  -12.5959    0.0000 C   0  0
   11.1220  -12.0064    0.0000 C   0  0
   11.1220  -10.8249    0.0000 C   0  0
   10.1028  -10.2352    0.0000 N   0  0
   12.1452  -12.5971    0.0000 C   0  0
   13.1683  -12.0064    0.0000 C   0  0
   13.1683  -10.8248    0.0000 C   0  0
   14.1893  -10.2368    0.0000 C   0  0
   15.2128  -10.8277    0.0000 C   0  0
   15.2128  -12.0033    0.0000 C   0  0
   14.1959  -12.5996    0.0000 C   0  0
   14.1959  -13.7811    0.0000 F   0  0
   16.2359  -10.2370    0.0000 Cl  0  0
   12.1452  -13.7786    0.0000 N   0  0
   11.1371  -14.3969    0.0000 C   0  0
   10.9930  -15.5701    0.0000 C   0  0
   11.8284  -16.4055    0.0000 N   0  0
   12.9951  -16.2952    0.0000 C   0  0
   13.6281  -15.3015    0.0000 C   0  0
   13.2486  -14.1813    0.0000 C   0  0
   11.5226  -17.5467    0.0000 C   0  0
   12.3580  -18.3821    0.0000 O   0  0
   10.3814  -17.8525    0.0000 O   0  0
   13.4992  -18.0763    0.0000 C   0  0
   14.3347  -18.9118    0.0000 C   0  0
  1  2  1  0
  2  3  2  0
  3  4  1  0
  4  5  2  0
  5  6  1  0
  6  1  2  0
  4  7  1  0
  7  8  1  0
  9  8  2  0
 10  9  1  0
 11 10  2  0
 12 11  1  0
 13 12  2  0
  8 13  1  0
 13 14  1  0
 11 15  1  0
  7 16  1  0
 17 16  1  0
 17 18  1  0
 18 19  1  0
 20 19  1  0
 21 20  1  0
 22 21  1  0
 16 22  1  0
 19 23  1  0
 23 24  1  0
 23 25  2  0
 24 26  1  0
 26 27  1  0
M  END
> <Work Package>
C

> <Target ID>
P4_C_005

> <Smiles>
CCOC(=O)N1CCCN(CC1)C(c2cccnc2)c3ccc(Cl)cc3F

> <Status >
Not Started

> <Target Proposed by>
DNDI

> <Synthesis by>

$$$$
Chemistry 0
  SciTegic06242012552D

 24 27  0  0  0  0            999 V2000
    9.0797  -11.3061    0.0000 C   0  0
    9.0797  -12.4923    0.0000 C   0  0
   10.1053  -13.0765    0.0000 C   0  0
   11.1220  -12.4870    0.0000 C   0  0
   11.1220  -11.3055    0.0000 C   0  0
   10.1028  -10.7158    0.0000 N   0  0
   12.1452  -13.0777    0.0000 C   0  0
   13.1683  -12.4870    0.0000 C   0  0
   13.1683  -11.3054    0.0000 C   0  0
   14.1893  -10.7174    0.0000 C   0  0
   15.2128  -11.3083    0.0000 C   0  0
   15.2128  -12.4839    0.0000 C   0  0
   14.1959  -13.0802    0.0000 C   0  0
   14.1959  -14.2617    0.0000 F   0  0
   16.2359  -10.7176    0.0000 Cl  0  0
   12.1452  -14.2592    0.0000 N   0  0
   11.1371  -14.8775    0.0000 C   0  0
   11.1685  -16.0597    0.0000 C   0  0
   12.2080  -16.6236    0.0000 N   0  0
   13.2161  -16.0053    0.0000 C   0  0
   13.1847  -14.8231    0.0000 C   0  0
   12.4845  -17.7733    0.0000 C   0  0
   14.1156  -16.7730    0.0000 C   0  0
   13.6634  -17.8657    0.0000 C   0  0
  1  2  1  0
  2  3  2  0
  3  4  1  0
  4  5  2  0
  5  6  1  0
  6  1  2  0
  4  7  1  0
  7  8  1  0
  9  8  2  0
 10  9  1  0
 11 10  2  0
 12 11  1  0
 13 12  2  0
  8 13  1  0
 13 14  1  0
 11 15  1  0
  7 16  1  0
 17 16  1  0
 20 21  1  0
 19 20  1  0
 18 19  1  0
 17 18  1  0
 16 21  1  0
 24 22  1  0
 23 24  1  0
 19 22  1  0
 20 23  1  0
M  END
> <Work Package>
C

> <Target ID>
P4_C_006

> <Smiles>
Fc1cc(Cl)ccc1C(N2CCN3CCCC3C2)c4cccnc4

> <Status >
Not Started

> <Target Proposed by>
Mycetos Github

> <Synthesis by>

$$$$
Chemistry 0
  SciTegic06242012552D

 24 27  0  0  0  0            999 V2000
    9.0797  -12.0694    0.0000 C   0  0
    9.0797  -13.2556    0.0000 C   0  0
   10.1053  -13.8398    0.0000 C   0  0
   11.1220  -13.2503    0.0000 C   0  0
   11.1220  -12.0688    0.0000 C   0  0
   10.1028  -11.4791    0.0000 N   0  0
   12.1452  -13.8410    0.0000 C   0  0
   13.1683  -13.2503    0.0000 C   0  0
   13.1683  -12.0687    0.0000 C   0  0
   14.1893  -11.4807    0.0000 C   0  0
   15.2128  -12.0716    0.0000 C   0  0
   15.2128  -13.2472    0.0000 C   0  0
   14.1959  -13.8435    0.0000 C   0  0
   14.1959  -15.0250    0.0000 F   0  0
   16.2359  -11.4809    0.0000 Cl  0  0
   12.1452  -15.0225    0.0000 N   0  0
   11.1371  -15.6408    0.0000 C   0  0
   11.1371  -16.8230    0.0000 C   0  0
   12.2080  -17.3869    0.0000 N   0  0
   13.2161  -16.7686    0.0000 C   0  0
   13.2161  -15.5864    0.0000 C   0  0
   14.1156  -17.5363    0.0000 C   0  0
   13.6634  -18.6290    0.0000 N   0  0
   12.4845  -18.5366    0.0000 C   0  0
  1  2  1  0
  2  3  2  0
  3  4  1  0
  4  5  2  0
  5  6  1  0
  6  1  2  0
  4  7  1  0
  7  8  1  0
  9  8  2  0
 10  9  1  0
 11 10  2  0
 12 11  1  0
 13 12  2  0
  8 13  1  0
 13 14  1  0
 11 15  1  0
  7 16  1  0
 17 16  1  0
 17 18  1  0
 18 19  1  0
 19 20  1  0
 20 21  1  0
 16 21  1  0
 20 22  2  0
 22 23  1  0
 23 24  2  0
 19 24  1  0
M  END
> <Work Package>
C

> <Target ID>
P4_C_007

> <Smiles>
Fc1cc(Cl)ccc1C(N2CCn3cncc3C2)c4cccnc4

> <Status >
Not Started

> <Target Proposed by>
Mycetos Github

> <Synthesis by>

$$$$
Chemistry 0
  SciTegic06242012552D

 22 24  0  0  0  0            999 V2000
    9.0797  -12.0456    0.0000 C   0  0
    9.0797  -13.2318    0.0000 C   0  0
   10.1053  -13.8161    0.0000 C   0  0
   11.1220  -13.2266    0.0000 C   0  0
   11.1220  -12.0451    0.0000 C   0  0
   10.1028  -11.4554    0.0000 N   0  0
   12.1452  -13.8173    0.0000 C   0  0
   13.1683  -13.2266    0.0000 C   0  0
   13.1683  -12.0450    0.0000 C   0  0
   14.1893  -11.4570    0.0000 C   0  0
   15.2128  -12.0479    0.0000 C   0  0
   15.2128  -13.2235    0.0000 C   0  0
   14.1959  -13.8198    0.0000 C   0  0
   14.1959  -15.0013    0.0000 F   0  0
   16.2359  -11.4571    0.0000 Cl  0  0
   12.1452  -14.9988    0.0000 N   0  0
   11.1371  -15.6171    0.0000 C   0  0
   11.1371  -16.7993    0.0000 C   0  0
   12.2080  -17.3632    0.0000 C   0  0
   13.2161  -16.7449    0.0000 C   0  0
   13.2161  -15.5627    0.0000 C   0  0
   12.2080  -18.5446    0.0000 O   0  0
  1  2  1  0
  2  3  2  0
  3  4  1  0
  4  5  2  0
  5  6  1  0
  6  1  2  0
  4  7  1  0
  7  8  1  0
  9  8  2  0
 10  9  1  0
 11 10  2  0
 12 11  1  0
 13 12  2  0
  8 13  1  0
 13 14  1  0
 11 15  1  0
  7 16  1  0
 17 16  1  0
 17 18  1  0
 18 19  1  0
 19 20  1  0
 20 21  1  0
 16 21  1  0
 19 22  1  0
M  END
> <Work Package>
C

> <Target ID>
P4_C_009

> <Smiles>
OC1CCN(CC1)C(c2cccnc2)c3ccc(Cl)cc3F

> <Status >
Completed - in test

> <Target Proposed by>
Mycetos Github

> <Synthesis by>
UCL

$$$$
Chemistry 0
  SciTegic06242012552D

 23 25  0  0  0  0            999 V2000
    9.0797  -12.0456    0.0000 C   0  0
    9.0797  -13.2318    0.0000 C   0  0
   10.1053  -13.8161    0.0000 C   0  0
   11.1220  -13.2266    0.0000 C   0  0
   11.1220  -12.0451    0.0000 C   0  0
   10.1028  -11.4554    0.0000 N   0  0
   12.1452  -13.8173    0.0000 C   0  0
   13.1683  -13.2266    0.0000 C   0  0
   13.1683  -12.0450    0.0000 C   0  0
   14.1893  -11.4570    0.0000 C   0  0
   15.2128  -12.0479    0.0000 C   0  0
   15.2128  -13.2235    0.0000 C   0  0
   14.1959  -13.8198    0.0000 C   0  0
   14.1959  -15.0013    0.0000 F   0  0
   16.2359  -11.4571    0.0000 Cl  0  0
   12.1452  -14.9988    0.0000 N   0  0
   11.1371  -15.6171    0.0000 C   0  0
   11.1371  -16.7993    0.0000 C   0  0
   12.2080  -17.3632    0.0000 C   0  0
   13.2161  -16.7449    0.0000 C   0  0
   13.2161  -15.5627    0.0000 C   0  0
   12.2080  -18.5446    0.0000 O   0  0
   13.2312  -19.1353    0.0000 C   0  0
  1  2  1  0
  2  3  2  0
  3  4  1  0
  4  5  2  0
  5  6  1  0
  6  1  2  0
  4  7  1  0
  7  8  1  0
  9  8  2  0
 10  9  1  0
 11 10  2  0
 12 11  1  0
 13 12  2  0
  8 13  1  0
 13 14  1  0
 11 15  1  0
  7 16  1  0
 17 16  1  0
 17 18  1  0
 18 19  1  0
 19 20  1  0
 20 21  1  0
 16 21  1  0
 19 22  1  0
 22 23  1  0
M  END
> <Work Package>
C

> <Target ID>
P4_C_010

> <Smiles>
COC1CCN(CC1)C(c2cccnc2)c3ccc(Cl)cc3F

> <Status >
Not Started

> <Target Proposed by>
Mycetos Github

> <Synthesis by>

$$$$
Chemistry 0
  SciTegic06242012552D

 23 25  0  0  0  0            999 V2000
    9.0797  -11.8043    0.0000 C   0  0
    9.0797  -12.9905    0.0000 C   0  0
   10.1053  -13.5748    0.0000 C   0  0
   11.1220  -12.9853    0.0000 C   0  0
   11.1220  -11.8038    0.0000 C   0  0
   10.1028  -11.2141    0.0000 N   0  0
   12.1452  -13.5760    0.0000 C   0  0
   13.1683  -12.9853    0.0000 C   0  0
   13.1683  -11.8037    0.0000 C   0  0
   14.1893  -11.2157    0.0000 C   0  0
   15.2128  -11.8066    0.0000 C   0  0
   15.2128  -12.9822    0.0000 C   0  0
   14.1959  -13.5785    0.0000 C   0  0
   14.1959  -14.7600    0.0000 F   0  0
   16.2359  -11.2158    0.0000 Cl  0  0
   12.1452  -14.7575    0.0000 N   0  0
   11.1371  -15.3758    0.0000 C   0  0
   11.1371  -16.5580    0.0000 C   0  0
   12.2080  -17.1219    0.0000 C   0  0
   13.2161  -16.5036    0.0000 C   0  0
   13.2161  -15.3214    0.0000 C   0  0
   12.2080  -18.3033    0.0000 O   0  0
   13.2389  -17.6990    0.0000 C   0  0
  1  2  1  0
  2  3  2  0
  3  4  1  0
  4  5  2  0
  5  6  1  0
  6  1  2  0
  4  7  1  0
  7  8  1  0
  9  8  2  0
 10  9  1  0
 11 10  2  0
 12 11  1  0
 13 12  2  0
  8 13  1  0
 13 14  1  0
 11 15  1  0
  7 16  1  0
 17 16  1  0
 17 18  1  0
 18 19  1  0
 19 20  1  0
 20 21  1  0
 16 21  1  0
 19 22  1  0
 19 23  1  0
M  END
> <Work Package>
C

> <Target ID>
P4_C_011

> <Smiles>
CC1(O)CCN(CC1)C(c2cccnc2)c3ccc(Cl)cc3F

> <Status >
Not Started

> <Target Proposed by>
Mycetos Github

> <Synthesis by>

$$$$
Chemistry 0
  SciTegic06242012552D

 27 30  0  0  0  0            999 V2000
    9.0797  -12.9099    0.0000 C   0  0
    9.0797  -14.0961    0.0000 C   0  0
   10.1053  -14.6804    0.0000 C   0  0
   11.1220  -14.0909    0.0000 C   0  0
   11.1220  -12.9094    0.0000 C   0  0
   10.1028  -12.3197    0.0000 N   0  0
   12.1452  -14.6816    0.0000 C   0  0
   13.1683  -14.0909    0.0000 C   0  0
   13.1683  -12.9093    0.0000 C   0  0
   14.1893  -12.3213    0.0000 C   0  0
   15.2128  -12.9122    0.0000 C   0  0
   15.2128  -14.0878    0.0000 C   0  0
   14.1959  -14.6841    0.0000 C   0  0
   14.1959  -15.8656    0.0000 F   0  0
   16.2359  -12.3214    0.0000 Cl  0  0
   12.1452  -15.8631    0.0000 N   0  0
   13.1005  -16.5572    0.0000 C   0  0
   12.7356  -17.6803    0.0000 C   0  0
   11.5548  -17.6803    0.0000 C   0  0
   11.1899  -16.5572    0.0000 C   0  0
   13.3263  -18.7035    0.0000 O   0  0
   14.5078  -18.7035    0.0000 C   0  0
   16.2767  -17.6815    0.0000 C   0  0
   15.0989  -17.6804    0.0000 C   0  0
   16.8676  -18.7050    0.0000 C   0  0
   15.1011  -19.7310    0.0000 C   0  0
   16.2818  -19.7242    0.0000 C   0  0
  1  2  1  0
  2  3  2  0
  3  4  1  0
  4  5  2  0
  5  6  1  0
  6  1  2  0
  4  7  1  0
  7  8  1  0
  9  8  2  0
 10  9  1  0
 11 10  2  0
 12 11  1  0
 13 12  2  0
  8 13  1  0
 13 14  1  0
 11 15  1  0
  7 16  1  0
 17 16  1  0
 17 18  1  0
 18 19  1  0
 19 20  1  0
 20 16  1  0
 18 21  1  0
 21 22  1  0
 27 25  1  0
 26 27  2  0
 23 24  1  0
 25 23  2  0
 24 22  2  0
 22 26  1  0
M  END
> <Work Package>
C

> <Target ID>
P4_C_013

> <Smiles>
Fc1cc(Cl)ccc1C(N2CCC(C2)Oc3ccccc3)c4cccnc4

> <Status >
Not Started

> <Target Proposed by>
Mycetos Github

> <Synthesis by>

$$$$
Chemistry 0
  SciTegic06242012552D

 25 28  0  0  0  0            999 V2000
    9.6116  -12.7526    0.0000 C   0  0
    9.6116  -13.7526    0.0000 C   0  0
   10.4776  -14.2526    0.0000 C   0  0
   11.3437  -13.7527    0.0000 C   0  0
   11.3437  -12.7527    0.0000 C   0  0
   10.4776  -12.2526    0.0000 N   0  0
   12.2097  -14.2527    0.0000 C   0  0
   13.0757  -13.7527    0.0000 C   0  0
   13.0757  -12.7527    0.0000 C   0  0
   13.9417  -12.2527    0.0000 C   0  0
   14.8078  -12.7527    0.0000 C   0  0
   14.8078  -13.7527    0.0000 C   0  0
   13.9417  -14.2527    0.0000 C   0  0
   13.9417  -15.2527    0.0000 F   0  0
   15.6738  -12.2527    0.0000 Cl  0  0
   12.2097  -15.2527    0.0000 N   0  0
   11.3437  -15.7527    0.0000 C   0  0
   11.3436  -16.7526    0.0000 C   0  0
   12.2097  -17.2527    0.0000 C   0  0
   13.0757  -16.7527    0.0000 C   0  0
   13.0757  -15.7527    0.0000 C   0  0
   10.4336  -17.2595    0.0000 C   0  0
   10.4256  -18.3011    0.0000 C   0  0
   11.3277  -18.8219    0.0000 C   0  0
   12.2257  -18.2942    0.0000 C   0  0
  1  2  1  0
  2  3  2  0
  3  4  1  0
  4  5  2  0
  5  6  1  0
  6  1  2  0
  4  7  1  0
  7  8  1  0
  9  8  2  0
 10  9  1  0
 11 10  2  0
 12 11  1  0
 13 12  2  0
  8 13  1  0
 13 14  1  0
 11 15  1  0
  7 16  1  0
 16 17  1  0
 17 18  1  0
 19 20  1  0
 20 21  1  0
 16 21  1  0
 18 22  1  0
 22 23  2  0
 23 24  1  0
 24 25  2  0
 25 19  1  0
 18 19  2  0
M  END
> <Work Package>
C

> <Target ID>
P4_C_DM10

> <Smiles>
Fc1cc(Cl)ccc1C(N2CCc3ccccc3C2)c4cccnc4

> <Status >
Completed - in test

> <Target Proposed by>
Mycetos Github

> <Synthesis by>
UCL

$$$$
Chemistry 0
  SciTegic06242012552D

 24 25  0  0  0  0            999 V2000
    9.6116  -12.7526    0.0000 C   0  0
    9.6116  -13.7526    0.0000 C   0  0
   10.4776  -14.2527    0.0000 C   0  0
   11.3437  -13.7527    0.0000 C   0  0
   11.3437  -12.7527    0.0000 C   0  0
   10.4776  -12.2526    0.0000 N   0  0
   12.2097  -14.2527    0.0000 C   0  0
   13.0757  -13.7527    0.0000 C   0  0
   13.0757  -12.7527    0.0000 C   0  0
   13.9417  -12.2527    0.0000 C   0  0
   14.8078  -12.7527    0.0000 C   0  0
   14.8078  -13.7527    0.0000 C   0  0
   13.9417  -14.2527    0.0000 C   0  0
   13.9417  -15.2527    0.0000 F   0  0
   15.6738  -12.2527    0.0000 Cl  0  0
   12.2097  -15.2527    0.0000 N   0  0
   13.0757  -15.7527    0.0000 C   0  0
   13.0757  -16.7527    0.0000 C   0  0
   11.3436  -16.7526    0.0000 C   0  0
   11.3437  -15.7527    0.0000 C   0  0
   13.9417  -17.2527    0.0000 O   0  0
   10.4776  -17.2526    0.0000 O   0  0
   10.4776  -18.2526    0.0000 C   0  0
   13.9417  -18.2527    0.0000 C   0  0
  1  2  1  0
  2  3  2  0
  3  4  1  0
  4  5  2  0
  5  6  1  0
  6  1  2  0
  4  7  1  0
  7  8  1  0
  9  8  2  0
 10  9  1  0
 11 10  2  0
 12 11  1  0
 13 12  2  0
  8 13  1  0
 13 14  1  0
 11 15  1  0
  7 16  1  0
 17 16  1  0
 18 17  1  0
 20 19  1  0
 16 20  1  0
 18 21  1  0
 19 22  1  0
 22 23  1  0
 21 24  1  0
M  END
> <Work Package>
C

> <Target ID>
P4_C_DM8

> <Smiles>
COCCN(CCOC)C(c1cccnc1)c2ccc(Cl)cc2F

> <Status >
Completed - in test

> <Target Proposed by>
Mycetos Github

> <Synthesis by>
UCL

$$$$
Chemistry 0
  SciTegic06242012552D

 36 39  0  0  0  0            999 V2000
    9.6642  -12.9356    0.0000 C   0  0
   10.5302  -12.4356    0.0000 C   0  0
   11.3963  -12.9356    0.0000 C   0  0
   11.3963  -13.9356    0.0000 C   0  0
   10.5302  -14.4356    0.0000 C   0  0
    9.6642  -13.9356    0.0000 N   0  0
   12.2623  -14.4356    0.0000 C   0  0
   13.1283  -13.9356    0.0000 C   0  0
   13.9943  -14.4356    0.0000 C   0  0
   14.8604  -13.9356    0.0000 C   0  0
   14.8604  -12.9356    0.0000 C   0  0
   13.9944  -12.4356    0.0000 C   0  0
   13.1283  -12.9356    0.0000 C   0  0
   12.2623  -12.4356    0.0000 F   0  0
   15.7264  -12.4356    0.0000 Cl  0  0
   12.2623  -15.4356    0.0000 N   0  0
   11.3963  -15.9356    0.0000 C   0  0
   13.1283  -15.9356    0.0000 C   0  0
   13.9943  -15.4356    0.0000 C   0  0
   14.8604  -15.9356    0.0000 C   0  0
   14.8604  -16.9356    0.0000 C   0  0
   13.9943  -17.4356    0.0000 C   0  0
   13.1283  -16.9356    0.0000 C   0  0
   11.3963  -16.9356    0.0000 C   0  0
   10.5302  -17.4356    0.0000 C   0  0
    9.6642  -16.9356    0.0000 C   0  0
    9.6642  -15.9356    0.0000 C   0  0
   10.5302  -15.4356    0.0000 C   0  0
   15.7264  -17.4356    0.0000 C   0  0
   16.2264  -16.5696    0.0000 C   0  0
   16.5924  -17.9356    0.0000 C   0  0
   15.2264  -18.3017    0.0000 C   0  0
    8.7982  -17.4356    0.0000 C   0  0
    9.2982  -18.3017    0.0000 C   0  0
    7.9322  -17.9356    0.0000 C   0  0
    8.2982  -16.5696    0.0000 C   0  0
  1  2  1  0
  2  3  2  0
  3  4  1  0
  4  5  2  0
  5  6  1  0
  6  1  2  0
  4  7  1  0
  7  8  1  0
  9  8  2  0
 10  9  1  0
 11 10  2  0
 12 11  1  0
 13 12  2  0
  8 13  1  0
 13 14  1  0
 11 15  1  0
  7 16  1  0
 16 17  1  0
 16 18  1  0
 18 19  1  0
 19 20  2  0
 20 21  1  0
 21 22  2  0
 22 23  1  0
 18 23  2  0
 24 25  1  0
 25 26  2  0
 26 27  1  0
 27 28  2  0
 28 17  1  0
 24 17  2  0
 21 29  1  0
 29 30  1  0
 29 31  1  0
 29 32  1  0
 26 33  1  0
 33 34  1  0
 33 35  1  0
 33 36  1  0
M  END
> <Work Package>
C

> <Target ID>
P4_C_DM9

> <Smiles>
CC(C)(C)c1ccc(cc1)N(C(c2cccnc2)c3ccc(Cl)cc3F)c4ccc(cc4)C(C)(C)C

> <Status >
Stopped - difficult synthesis

> <Target Proposed by>
Mycetos Github

> <Synthesis by>
UCL

$$$$
Chemistry 0
  SciTegic06242012552D

 22 24  0  0  0  0            999 V2000
    8.3019   -3.2335    0.0000 C   0  0
    9.1679   -2.7335    0.0000 C   0  0
   10.0340   -3.2335    0.0000 C   0  0
   10.0340   -4.2335    0.0000 C   0  0
    9.1679   -4.7335    0.0000 C   0  0
    8.3019   -4.2335    0.0000 N   0  0
   10.9000   -4.7335    0.0000 C   0  0
   11.7660   -4.2335    0.0000 C   0  0
   12.6320   -4.7335    0.0000 C   0  0
   13.4981   -4.2335    0.0000 C   0  0
   13.4981   -3.2335    0.0000 C   0  0
   12.6321   -2.7335    0.0000 C   0  0
   11.7660   -3.2335    0.0000 C   0  0
   10.9000   -2.7335    0.0000 F   0  0
   14.3641   -2.7335    0.0000 Cl  0  0
   10.9000   -5.7335    0.0000 N   0  0
   10.0340   -6.2335    0.0000 C   0  0
    9.1679   -5.7335    0.0000 C   0  0
    8.3019   -6.2335    0.0000 C   0  0
    8.3019   -7.2335    0.0000 C   0  0
    9.1679   -7.7335    0.0000 C   0  0
   10.0340   -7.2335    0.0000 C   0  0
  1  2  1  0
  2  3  2  0
  3  4  1  0
  4  5  2  0
  5  6  1  0
  6  1  2  0
  4  7  1  0
  7  8  1  0
  9  8  2  0
 10  9  1  0
 11 10  2  0
 12 11  1  0
 13 12  2  0
  8 13  1  0
 13 14  1  0
 11 15  1  0
  7 16  1  0
 16 17  1  0
 18 17  1  0
 19 18  2  0
 20 19  1  0
 21 20  2  0
 22 21  1  0
 22 17  2  0
M  END
> <Work Package>
C

> <Target ID>
P4_C_DM24

> <Smiles>
Fc1cc(Cl)ccc1C(Nc2ccccc2)c3cccnc3

> <Status >
Completed - in test

> <Target Proposed by>
Mycetos Github

> <Synthesis by>
UCL

$$$$
Chemistry 0
  SciTegic06242012552D

 23 25  0  0  0  0            999 V2000
    7.8093   -3.6666    0.0000 C   0  0
    8.6753   -3.1666    0.0000 C   0  0
    9.5414   -3.6666    0.0000 C   0  0
    9.5414   -4.6666    0.0000 C   0  0
    8.6753   -5.1666    0.0000 C   0  0
    7.8093   -4.6666    0.0000 N   0  0
   10.4074   -5.1666    0.0000 C   0  0
   11.2734   -4.6666    0.0000 C   0  0
   12.1394   -5.1666    0.0000 C   0  0
   13.0055   -4.6666    0.0000 C   0  0
   13.0055   -3.6666    0.0000 C   0  0
   12.1395   -3.1666    0.0000 C   0  0
   11.2734   -3.6666    0.0000 C   0  0
   10.4074   -3.1666    0.0000 F   0  0
   13.8715   -3.1666    0.0000 Cl  0  0
   10.4074   -6.1666    0.0000 N   0  0
    9.5414   -6.6666    0.0000 C   0  0
    8.6753   -6.1666    0.0000 C   0  0
    7.8093   -6.6666    0.0000 C   0  0
    7.8093   -7.6666    0.0000 C   0  0
    8.6753   -8.1666    0.0000 C   0  0
    9.5414   -7.6666    0.0000 C   0  0
   11.2734   -6.6666    0.0000 C   0  0
  1  2  1  0
  2  3  2  0
  3  4  1  0
  4  5  2  0
  5  6  1  0
  6  1  2  0
  4  7  1  0
  7  8  1  0
  9  8  2  0
 10  9  1  0
 11 10  2  0
 12 11  1  0
 13 12  2  0
  8 13  1  0
 13 14  1  0
 11 15  1  0
  7 16  1  0
 16 17  1  0
 18 17  1  0
 19 18  2  0
 20 19  1  0
 21 20  2  0
 22 21  1  0
 22 17  2  0
 16 23  1  0
M  END
> <Work Package>
C

> <Target ID>
P4_C_DM25

> <Smiles>
CN(C(c1cccnc1)c2ccc(Cl)cc2F)c3ccccc3

> <Status >
Completed - in test

> <Target Proposed by>
Mycetos Github

> <Synthesis by>
UCL

$$$$
Chemistry 0
  SciTegic06242012552D

 23 25  0  0  0  0            999 V2000
    7.8093   -3.6666    0.0000 C   0  0
    8.6753   -3.1666    0.0000 C   0  0
    9.5414   -3.6666    0.0000 C   0  0
    9.5414   -4.6666    0.0000 C   0  0
    8.6753   -5.1666    0.0000 C   0  0
    7.8093   -4.6666    0.0000 N   0  0
   10.4074   -5.1666    0.0000 C   0  0
   11.2734   -4.6666    0.0000 C   0  0
   12.1394   -5.1666    0.0000 C   0  0
   13.0055   -4.6666    0.0000 C   0  0
   13.0055   -3.6666    0.0000 C   0  0
   12.1395   -3.1666    0.0000 C   0  0
   11.2734   -3.6666    0.0000 C   0  0
   10.4074   -3.1666    0.0000 F   0  0
   13.8715   -3.1666    0.0000 Cl  0  0
   10.4074   -6.1666    0.0000 N   0  0
    9.5414   -6.6666    0.0000 C   0  0
    9.5414   -7.6666    0.0000 C   0  0
   10.4064   -9.1638    0.0000 C   0  0
   10.4073   -8.1668    0.0000 C   0  0
    9.5401   -9.6640    0.0000 C   0  0
    8.6716   -8.1687    0.0000 C   0  0
    8.6774   -9.1681    0.0000 C   0  0
  1  2  1  0
  2  3  2  0
  3  4  1  0
  4  5  2  0
  5  6  1  0
  6  1  2  0
  4  7  1  0
  7  8  1  0
  9  8  2  0
 10  9  1  0
 11 10  2  0
 12 11  1  0
 13 12  2  0
  8 13  1  0
 13 14  1  0
 11 15  1  0
  7 16  1  0
 16 17  1  0
 17 18  1  0
 23 21  1  0
 22 23  2  0
 19 20  1  0
 21 19  2  0
 20 18  2  0
 18 22  1  0
M  END
> <Work Package>
C

> <Target ID>
P4_C_014

> <Smiles>
Fc1cc(Cl)ccc1C(NCc2ccccc2)c3cccnc3

> <Status >
Ongoing

> <Target Proposed by>
DNDI

> <Synthesis by>
UCL

$$$$
Chemistry 0
  SciTegic06242012552D

 24 26  0  0  0  0            999 V2000
    7.8093   -2.9179    0.0000 C   0  0
    8.6753   -2.4179    0.0000 C   0  0
    9.5414   -2.9179    0.0000 C   0  0
    9.5414   -3.9179    0.0000 C   0  0
    8.6753   -4.4179    0.0000 C   0  0
    7.8093   -3.9179    0.0000 N   0  0
   10.4074   -4.4179    0.0000 C   0  0
   11.2734   -3.9179    0.0000 C   0  0
   12.1394   -4.4179    0.0000 C   0  0
   13.0055   -3.9179    0.0000 C   0  0
   13.0055   -2.9179    0.0000 C   0  0
   12.1395   -2.4179    0.0000 C   0  0
   11.2734   -2.9179    0.0000 C   0  0
   10.4074   -2.4179    0.0000 F   0  0
   13.8715   -2.4179    0.0000 Cl  0  0
   10.4074   -5.4179    0.0000 N   0  0
    9.5414   -5.9179    0.0000 C   0  0
    9.5414   -6.9179    0.0000 C   0  0
   10.4064   -7.4181    0.0000 C   0  0
   10.4064   -8.4151    0.0000 C   0  0
    9.5401   -8.9153    0.0000 C   0  0
    8.6716   -8.4194    0.0000 C   0  0
    8.6716   -7.4200    0.0000 C   0  0
   11.2734   -5.9179    0.0000 C   0  0
  1  2  1  0
  2  3  2  0
  3  4  1  0
  4  5  2  0
  5  6  1  0
  6  1  2  0
  4  7  1  0
  7  8  1  0
  9  8  2  0
 10  9  1  0
 11 10  2  0
 12 11  1  0
 13 12  2  0
  8 13  1  0
 13 14  1  0
 11 15  1  0
  7 16  1  0
 16 17  1  0
 17 18  1  0
 19 18  2  0
 20 19  1  0
 21 20  2  0
 22 21  1  0
 23 22  2  0
 18 23  1  0
 16 24  1  0
M  END
> <Work Package>
C

> <Target ID>
P4_C_015

> <Smiles>
CN(Cc1ccccc1)C(c2cccnc2)c3ccc(Cl)cc3F

> <Status >
Ongoing

> <Target Proposed by>
DNDI

> <Synthesis by>
UCL

$$$$
Chemistry 11
  SciTegic06242012552D

 23 26  0  0  0  0            999 V2000
    8.3646   -1.9962    0.0000 Cl  0  0
    7.1647   -2.0133    0.0000 C   0  0
    6.4333   -3.3229    0.0000 C   0  0
    4.9334   -3.3443    0.0000 C   0  0
    4.1649   -2.0560    0.0000 C   0  0
    4.8964   -0.7465    0.0000 C   0  0
    6.3963   -0.7251    0.0000 C   0  0
    4.2817    0.2841    0.0000 F   0  0
    2.6643   -2.0804    0.0000 C   0  0
    1.9343   -3.3918    0.0000 C   0  0
    0.4345   -3.4184    0.0000 C   0  0
   -0.2924   -4.7305    0.0000 C   0  0
    0.4804   -6.0160    0.0000 C   0  0
    1.9802   -5.9895    0.0000 N   0  0
    2.7071   -4.6774    0.0000 C   0  0
    1.8975   -0.8028    0.0000 N   0  0
    0.9488    0.0000    0.0000 C   0  0
   -0.8393    0.0000    0.0000 C   0  0
   -1.8063   -1.3319    0.0000 C   0  0
   -0.6568   -0.6386    0.0000 C   0  0
    0.0000    0.6568    0.0000 C   0  0
    1.6421    0.6933    0.0000 C   0  0
   -1.0947    1.4779    0.0000 O   0  0
  1  2  1  0
  2  3  2  0
  3  4  1  0
  4  5  2  0
  5  6  1  0
  6  7  2  0
  7  2  1  0
  6  8  1  0
  5  9  1  0
  9 10  1  0
 10 11  2  0
 11 12  1  0
 12 13  2  0
 13 14  1  0
 14 15  2  0
 15 10  1  0
  9 16  1  0
 16 17  1  0
 17 18  1  0
 18 19  1  0
 19 20  1  0
 20 21  1  0
 21 22  1  0
 22 16  1  0
 21 23  1  0
 23 18  1  0
M  END
> <Work Package>
C

> <Target ID>
P4_C_MX011

> <Smiles>
Fc1cc(Cl)ccc1C(N2CC3CCC(C2)O3)c4cccnc4

> <Status >
Not Started

> <Target Proposed by>
Mycetos Github

> <Synthesis by>

$$$$
Chemistry 0
  SciTegic06242012552D

 20 22  0  0  0  0            999 V2000
    2.3383   -1.3500    0.0000 F   0  0
    1.2990   -0.7500    0.0000 C   0  0
    1.2990    0.7500    0.0000 C   0  0
    0.0000    1.5000    0.0000 C   0  0
   -1.2990    0.7500    0.0000 C   0  0
   -1.2990   -0.7500    0.0000 C   0  0
   -2.3383   -1.3500    0.0000 Cl  0  0
    0.0000   -1.5000    0.0000 C   0  0
    2.5972    1.5031    0.0000 C   0  0
    2.5951    3.0039    0.0000 N   0  0
    3.8056    3.8680    0.0000 C   0  0
    3.3371    5.2929    0.0000 C   0  0
    1.8371    5.2877    0.0000 C   0  0
    1.3786    3.8595    0.0000 N   0  0
    3.8982    0.7550    0.0000 C   0  0
    5.1971    1.5055    0.0000 C   0  0
    6.4964    0.7559    0.0000 N   0  0
    6.4970   -0.7441    0.0000 C   0  0
    5.1983   -1.4946    0.0000 C   0  0
    3.8989   -0.7450    0.0000 C   0  0
  1  2  1  0
  2  3  2  0
  3  4  1  0
  4  5  2  0
  5  6  1  0
  6  7  1  0
  6  8  2  0
  8  2  1  0
  3  9  1  0
  9 10  1  0
 10 11  1  0
 11 12  2  0
 12 13  1  0
 13 14  2  0
 14 10  1  0
  9 15  1  0
 15 16  2  0
 16 17  1  0
 17 18  2  0
 18 19  1  0
 19 20  2  0
 20 15  1  0
M  END
> <Work Package>
C

> <Target ID>
P4_C_MXF001

> <Smiles>
Fc1cc(Cl)ccc1C(c2cccnc2)n3cccn3

> <Status >
Completed - in test

> <Target Proposed by>
Mycetos Github

> <Synthesis by>
UCL

$$$$
Chemistry 1
  SciTegic06242012552D

 20 22  0  0  0  0            999 V2000
    2.3383   -1.3500    0.0000 F   0  0
    1.2990   -0.7500    0.0000 C   0  0
    1.2990    0.7500    0.0000 C   0  0
    0.0000    1.5000    0.0000 C   0  0
   -1.2990    0.7500    0.0000 C   0  0
   -1.2990   -0.7500    0.0000 C   0  0
   -2.3383   -1.3500    0.0000 Cl  0  0
    0.0000   -1.5000    0.0000 C   0  0
    2.5972    1.5031    0.0000 C   0  0
    2.5951    3.0039    0.0000 N   0  0
    3.8056    3.8680    0.0000 C   0  0
    3.3371    5.2929    0.0000 N   0  0
    1.8371    5.2877    0.0000 C   0  0
    1.3786    3.8595    0.0000 N   0  0
    3.8982    0.7550    0.0000 C   0  0
    5.1971    1.5055    0.0000 C   0  0
    6.4964    0.7559    0.0000 N   0  0
    6.4970   -0.7441    0.0000 C   0  0
    5.1983   -1.4946    0.0000 C   0  0
    3.8989   -0.7450    0.0000 C   0  0
  1  2  1  0
  2  3  2  0
  3  4  1  0
  4  5  2  0
  5  6  1  0
  6  7  1  0
  6  8  2  0
  8  2  1  0
  3  9  1  0
  9 10  1  0
 10 11  1  0
 11 12  2  0
 12 13  1  0
 13 14  2  0
 14 10  1  0
  9 15  1  0
 15 16  2  0
 16 17  1  0
 17 18  2  0
 18 19  1  0
 19 20  2  0
 20 15  1  0
M  END
> <Work Package>
C

> <Target ID>
P4_C_MXF002

> <Smiles>
Fc1cc(Cl)ccc1C(c2cccnc2)n3cncn3

> <Status >
Completed - in test

> <Target Proposed by>
Mycetos Github

> <Synthesis by>
UCL

$$$$
Chemistry 2
  SciTegic06242012552D

 22 24  0  0  0  0            999 V2000
    2.3383   -1.3500    0.0000 F   0  0
    1.2990   -0.7500    0.0000 C   0  0
    1.2990    0.7500    0.0000 C   0  0
    0.0000    1.5000    0.0000 C   0  0
   -1.2990    0.7500    0.0000 C   0  0
   -1.2990   -0.7500    0.0000 C   0  0
   -2.3383   -1.3500    0.0000 Cl  0  0
    0.0000   -1.5000    0.0000 C   0  0
    2.5972    1.5031    0.0000 C   0  0
    3.8982    0.7550    0.0000 N   0  0
    5.1971    1.5055    0.0000 C   0  0
    6.4964    0.7559    0.0000 C   0  0
    6.4970   -0.7441    0.0000 C   0  0
    7.5365   -1.3437    0.0000 O   0  0
    5.1983   -1.4946    0.0000 C   0  0
    3.8989   -0.7450    0.0000 C   0  0
    2.5951    3.0039    0.0000 C   0  0
    3.8915    3.7585    0.0000 C   0  0
    3.8863    5.2585    0.0000 N   0  0
    2.5847    6.0040    0.0000 C   0  0
    1.2883    5.2495    0.0000 C   0  0
    1.2934    3.7495    0.0000 C   0  0
  1  2  1  0
  2  3  2  0
  3  4  1  0
  4  5  2  0
  5  6  1  0
  6  7  1  0
  6  8  2  0
  8  2  1  0
  3  9  1  0
  9 10  1  0
 10 11  1  0
 11 12  1  0
 12 13  1  0
 13 14  2  0
 13 15  1  0
 15 16  1  0
 16 10  1  0
  9 17  1  0
 17 18  2  0
 18 19  1  0
 19 20  2  0
 20 21  1  0
 21 22  2  0
 22 17  1  0
M  END
> <Work Package>
C

> <Target ID>
P4_C_MXF003

> <Smiles>
Fc1cc(Cl)ccc1C(N2CCC(=O)CC2)c3cccnc3

> <Status >
Completed - in test

> <Target Proposed by>
Mycetos Github

> <Synthesis by>
UCL

$$$$
Chemistry
  SciTegic06242012552D

 27 29  0  0  0  0            999 V2000
    4.4727    5.4064    0.0000 C   0  0
    3.4727    5.4078    0.0000 C   0  0
    3.4742    6.4078    0.0000 C   0  0
    3.4713    4.4078    0.0000 O   0  0
    2.6045    3.9091    0.0000 C   0  0
    2.6031    2.9091    0.0000 N   0  0
    3.3091    2.2010    0.0000 C   0  0
    2.6010    1.4950    0.0000 C   0  0
    2.5995    0.4950    0.0000 O   0  0
    1.7328   -0.0038    0.0000 C   0  0
    1.7313   -1.0038    0.0000 C   0  0
    2.6004   -1.5089    0.0000 C   0  0
    2.6034   -2.5140    0.0000 C   0  0
    1.7286   -3.0089    0.0000 C   0  0
    0.8595   -2.5038    0.0000 C   0  0
    0.8653   -1.5038    0.0000 C   0  0
    1.7227   -4.0089    0.0000 Cl  0  0
    3.4664   -1.0088    0.0000 F   0  0
    0.8675    0.4975    0.0000 C   0  0
    0.8675    1.5027    0.0000 C   0  0
    0.0000    2.0104    0.0000 N   0  0
   -0.8675    1.5027    0.0000 C   0  0
   -0.8675    0.4975    0.0000 C   0  0
    0.0000    0.0000    0.0000 C   0  0
    1.8950    2.2031    0.0000 C   0  0
    1.7392    4.4103    0.0000 O   0  0
    2.4727    5.4093    0.0000 C   0  0
  1  2  1  0
  2  3  1  0
  2  4  1  0
  4  5  1  0
  5  6  1  0
  6 25  1  0
  6  7  1  0
  7  8  1  0
  8  9  1  0
  9 10  1  0
 10 11  1  0
 11 16  1  0
 11 12  2  0
 12 13  1  0
 13 14  2  0
 14 15  1  0
 15 16  2  0
 14 17  1  0
 12 18  1  0
 10 19  1  0
 19 24  1  0
 19 20  2  0
 20 21  1  0
 21 22  2  0
 22 23  1  0
 23 24  2  0
  8 25  1  0
  5 26  2  0
  2 27  1  0
M  END
> <Work Package>
C

> <Target ID>
P4_C_MXF011

> <Smiles>
CC(C)(C)OC(=O)N1CC(C1)OC(c2cccnc2)c3ccc(Cl)cc3F

> <Status >
Completed - in test

> <Target Proposed by>
Mycetos Github

> <Synthesis by>
UCL

$$$$
Chemistry 3
  SciTegic06242012552D

 20 23  0  0  0  0            999 V2000
    2.7669   -0.6062    0.0000 O   0  0
    2.4133   -1.7530    0.0000 C   0  0
    1.2990   -0.7500    0.0000 C   0  0
    1.2990    0.7500    0.0000 C   0  0
    0.0000    1.5000    0.0000 C   0  0
   -1.2990    0.7500    0.0000 C   0  0
   -1.2990   -0.7500    0.0000 C   0  0
    0.0000   -1.5000    0.0000 C   0  0
    0.3114   -2.9665    0.0000 C   0  0
    1.8032   -3.1233    0.0000 C   0  0
    2.4135   -4.4923    0.0000 C   0  0
    1.5318   -5.7059    0.0000 C   0  0
    0.0400   -5.5491    0.0000 C   0  0
   -0.5701   -4.1788    0.0000 C   0  0
    3.3924   -2.8731    0.0000 C   0  0
    2.9079   -4.2927    0.0000 C   0  0
    3.8950   -5.4221    0.0000 N   0  0
    5.3667   -5.1319    0.0000 C   0  0
    5.8512   -3.7123    0.0000 C   0  0
    4.8641   -2.5829    0.0000 C   0  0
  1  2  1  0
  2  3  1  0
  3  4  2  0
  4  5  1  0
  5  6  2  0
  6  7  1  0
  7  8  2  0
  8  3  1  0
  8  9  1  0
  9 10  2  0
 10  2  1  0
 10 11  1  0
 11 12  2  0
 12 13  1  0
 13 14  2  0
 14  9  1  0
  2 15  1  0
 15 16  2  0
 16 17  1  0
 17 18  2  0
 18 19  1  0
 19 20  2  0
 20 15  1  0
M  END
> <Work Package>
D

> <Target ID>
P4_D_MXF004

> <Smiles>
OC1(c2cccnc2)c3ccccc3c4ccccc14

> <Status >
Completed - in test

> <Target Proposed by>
Mycetos Github

> <Synthesis by>
HDuong

$$$$
Chemistry 4
  SciTegic06242012552D

 17 18  0  0  0  0            999 V2000
    6.2391   -0.9061    0.0000 C   0  0
    5.1988   -1.5042    0.0000 C   0  0
    3.8999   -0.7523    0.0000 C   0  0
    2.5988   -1.5004    0.0000 C   0  0
    2.5999   -0.3004    0.0000 O   0  0
    1.2990   -0.7500    0.0000 C   0  0
    1.2990    0.7500    0.0000 C   0  0
    0.0000    1.5000    0.0000 C   0  0
   -1.2990    0.7500    0.0000 C   0  0
   -1.2990   -0.7500    0.0000 C   0  0
    0.0000   -1.5000    0.0000 C   0  0
    2.5996   -3.0013    0.0000 C   0  0
    1.3010   -3.7520    0.0000 C   0  0
    1.3018   -5.2520    0.0000 N   0  0
    2.6012   -6.0013    0.0000 C   0  0
    3.8998   -5.2506    0.0000 C   0  0
    3.8990   -3.7506    0.0000 C   0  0
  1  2  1  0
  2  3  1  0
  3  4  1  0
  4  5  1  0
  4  6  1  0
  6  7  2  0
  7  8  1  0
  8  9  2  0
  9 10  1  0
 10 11  2  0
 11  6  1  0
  4 12  1  0
 12 13  2  0
 13 14  1  0
 14 15  2  0
 15 16  1  0
 16 17  2  0
 17 12  1  0
M  END
> <Work Package>
D

> <Target ID>
P4_D_MXF005

> <Smiles>
CCCC(O)(c1ccccc1)c2cccnc2

> <Status >
Completed - in test

> <Target Proposed by>
Mycetos Github

> <Synthesis by>
HDuong

$$$$
Chemistry 5
  SciTegic06242012552D

 19 20  0  0  0  0            999 V2000
    8.8391   -0.9098    0.0000 C   0  0
    7.7988   -1.5080    0.0000 C   0  0
    6.4999   -0.7561    0.0000 O   0  0
    5.1988   -1.5042    0.0000 C   0  0
    3.8999   -0.7523    0.0000 C   0  0
    2.5988   -1.5004    0.0000 C   0  0
    2.5999   -0.3004    0.0000 O   0  0
    1.2990   -0.7500    0.0000 C   0  0
    1.2990    0.7500    0.0000 C   0  0
    0.0000    1.5000    0.0000 C   0  0
   -1.2990    0.7500    0.0000 C   0  0
   -1.2990   -0.7500    0.0000 C   0  0
    0.0000   -1.5000    0.0000 C   0  0
    2.5996   -3.0013    0.0000 C   0  0
    1.3010   -3.7520    0.0000 C   0  0
    1.3018   -5.2520    0.0000 N   0  0
    2.6012   -6.0013    0.0000 C   0  0
    3.8998   -5.2506    0.0000 C   0  0
    3.8990   -3.7506    0.0000 C   0  0
  1  2  1  0
  2  3  1  0
  3  4  1  0
  4  5  1  0
  5  6  1  0
  6  7  1  0
  6  8  1  0
  8  9  2  0
  9 10  1  0
 10 11  2  0
 11 12  1  0
 12 13  2  0
 13  8  1  0
  6 14  1  0
 14 15  2  0
 15 16  1  0
 16 17  2  0
 17 18  1  0
 18 19  2  0
 19 14  1  0
M  END
> <Work Package>
D

> <Target ID>
P4_D_MXF006

> <Smiles>
CCOCCC(O)(c1ccccc1)c2cccnc2

> <Status >
Ongoing

> <Target Proposed by>
Mycetos Github

> <Synthesis by>
HDuong

$$$$
Chemistry 6
  SciTegic06242012552D

 16 17  0  0  0  0            999 V2000
    1.5593   -3.6015    0.0000 C   0  0
    2.5983   -3.0012    0.0000 C   0  0
    2.5988   -1.5004    0.0000 C   0  0
    1.5595   -2.1002    0.0000 O   0  0
    1.2990   -0.7500    0.0000 C   0  0
    1.2990    0.7500    0.0000 C   0  0
    0.0000    1.5000    0.0000 C   0  0
   -1.2990    0.7500    0.0000 C   0  0
   -1.2990   -0.7500    0.0000 C   0  0
    0.0000   -1.5000    0.0000 C   0  0
    3.8990   -0.7508    0.0000 C   0  0
    5.1976   -1.5016    0.0000 C   0  0
    6.4971   -0.7525    0.0000 N   0  0
    6.4980    0.7475    0.0000 C   0  0
    5.1995    1.4984    0.0000 C   0  0
    3.9000    0.7492    0.0000 C   0  0
  1  2  1  0
  2  3  1  0
  3  4  1  0
  3  5  1  0
  5  6  2  0
  6  7  1  0
  7  8  2  0
  8  9  1  0
  9 10  2  0
 10  5  1  0
  3 11  1  0
 11 12  2  0
 12 13  1  0
 13 14  2  0
 14 15  1  0
 15 16  2  0
 16 11  1  0
M  END
> <Work Package>
D

> <Target ID>
P4_D_MXF007

> <Smiles>
CCC(O)(c1ccccc1)c2cccnc2

> <Status >
Not Started

> <Target Proposed by>
Mycetos Github

> <Synthesis by>

$$$$
Chemistry 7
  SciTegic06242012552D

 17 19  0  0  0  0            999 V2000
    1.2707   -1.9497    0.0000 O   0  0
    1.2990   -0.7500    0.0000 C   0  0
    1.2990    0.7500    0.0000 C   0  0
    0.0000    1.5000    0.0000 C   0  0
   -1.2990    0.7500    0.0000 C   0  0
   -1.2990   -0.7500    0.0000 C   0  0
    0.0000   -1.5000    0.0000 C   0  0
    0.0000   -3.0000    0.0000 C   0  0
   -1.2990   -3.7500    0.0000 C   0  0
   -2.5981   -3.0000    0.0000 C   0  0
   -2.5981   -1.5000    0.0000 C   0  0
    2.5636    0.0202    0.0000 C   0  0
    3.8799   -0.6991    0.0000 C   0  0
    5.1609    0.0813    0.0000 N   0  0
    5.1257    1.5808    0.0000 C   0  0
    3.8094    2.3001    0.0000 N   0  0
    2.5283    1.5198    0.0000 C   0  0
  1  2  1  0
  2  3  1  0
  3  4  1  0
  4  5  1  0
  5  6  1  0
  6  7  2  0
  7  2  1  0
  7  8  1  0
  8  9  2  0
  9 10  1  0
 10 11  2  0
 11  6  1  0
  2 12  1  0
 12 13  2  0
 13 14  1  0
 14 15  2  0
 15 16  1  0
 16 17  2  0
 17 12  1  0
M  END
> <Work Package>
D

> <Target ID>
P4_D_MXF008

> <Smiles>
OC1(CCCc2ccccc12)c3cncnc3

> <Status >
Not Started

> <Target Proposed by>
Mycetos Github

> <Synthesis by>

$$$$
Chemistry 8
  SciTegic06242012552D

 21 24  0  0  0  0            999 V2000
    2.3238   -0.1256    0.0000 O   0  0
    1.2990   -0.7500    0.0000 C   0  0
    1.7726   -2.1528    0.0000 C   0  0
    3.2433   -2.4479    0.0000 C   0  0
    3.7231   -3.8691    0.0000 N   0  0
    2.7322   -4.9952    0.0000 C   0  0
    1.2615   -4.7001    0.0000 C   0  0
    0.7817   -3.2789    0.0000 C   0  0
    1.2990    0.7500    0.0000 C   0  0
    2.5981    1.5000    0.0000 C   0  0
    2.5981    3.0000    0.0000 C   0  0
    1.2990    3.7500    0.0000 C   0  0
    0.0000    3.0000    0.0000 C   0  0
    0.0000    1.5000    0.0000 C   0  0
   -1.2990    0.7500    0.0000 C   0  0
   -1.2990   -0.7500    0.0000 C   0  0
    0.0000   -1.5000    0.0000 C   0  0
    0.0000   -3.0000    0.0000 C   0  0
   -1.2990   -3.7500    0.0000 C   0  0
   -2.5981   -3.0000    0.0000 C   0  0
   -2.5981   -1.5000    0.0000 C   0  0
  1  2  1  0
  2  3  1  0
  3  4  2  0
  4  5  1  0
  5  6  2  0
  6  7  1  0
  7  8  2  0
  8  3  1  0
  2  9  1  0
  9 10  2  0
 10 11  1  0
 11 12  2  0
 12 13  1  0
 13 14  2  0
 14  9  1  0
 14 15  1  0
 15 16  1  0
 16 17  2  0
 17  2  1  0
 17 18  1  0
 18 19  2  0
 19 20  1  0
 20 21  2  0
 21 16  1  0
M  END
> <Work Package>
d

> <Target ID>
P4_D_MXF009

> <Smiles>
OC1(c2cccnc2)c3ccccc3Cc4ccccc14

> <Status >
Stopped - difficult synthesis

> <Target Proposed by>
Mycetos Github

> <Synthesis by>
HDuong

$$$$
Chemistry 10
  SciTegic06242012552D

 22 24  0  0  0  0            999 V2000
    1.2990   -0.7500    0.0000 C   0  0
    1.2990    0.7500    0.0000 C   0  0
    0.0000    1.5000    0.0000 C   0  0
   -1.2990    0.7500    0.0000 C   0  0
   -1.2990   -0.7500    0.0000 C   0  0
    0.0000   -1.5000    0.0000 C   0  0
    2.5988   -1.5004    0.0000 C   0  0
    3.8990   -0.7508    0.0000 C   0  0
    5.1976   -1.5016    0.0000 C   0  0
    6.4971   -0.7525    0.0000 C   0  0
    6.4980    0.7475    0.0000 C   0  0
    5.1995    1.4984    0.0000 N   0  0
    3.9000    0.7492    0.0000 C   0  0
    2.5983   -3.0012    0.0000 C   0  0
    3.8971   -3.7516    0.0000 C   0  0
    3.8966   -5.2516    0.0000 C   0  0
    2.5974   -6.0012    0.0000 C   0  0
    2.5970   -7.2012    0.0000 C   0  0
    1.2986   -5.2507    0.0000 C   0  0
    0.2592   -5.8504    0.0000 C   0  0
    1.2990   -3.7507    0.0000 C   0  0
    2.5992   -0.3004    0.0000 O   0  0
  1  2  2  0
  2  3  1  0
  3  4  2  0
  4  5  1  0
  5  6  2  0
  6  1  1  0
  1  7  1  0
  7  8  1  0
  8  9  1  0
  9 10  2  0
 10 11  1  0
 11 12  2  0
 12 13  1  0
 13  8  2  0
  7 14  1  0
 14 15  1  0
 15 16  2  0
 16 17  1  0
 17 18  1  0
 17 19  2  0
 19 20  1  0
 19 21  1  0
 21 14  2  0
  7 22  1  0
M  END
> <Work Package>
D

> <Target ID>
P4_D_MXF010

> <Smiles>
Cc1ccc(cc1C)C(O)(c2ccccc2)c3cccnc3

> <Status >
Not Started

> <Target Proposed by>
Mycetos Github

> <Synthesis by>

$$$$
Chemistry 10
  SciTegic06242012552D

 21 23  0  0  0  0            999 V2000
   10.5625   -6.1277    0.0000 C   0  0
   10.5625   -4.6277    0.0000 C   0  0
    9.2635   -3.8777    0.0000 C   0  0
    7.9645   -4.6277    0.0000 C   0  0
    7.9645   -6.1277    0.0000 C   0  0
    9.2635   -6.8777    0.0000 C   0  0
   11.8623   -6.8781    0.0000 C   0  0
   13.1625   -6.1285    0.0000 C   0  0
   14.4611   -6.8793    0.0000 C   0  0
   15.7606   -6.1302    0.0000 C   0  0
   15.7606   -4.6302    0.0000 C   0  0
   14.4630   -3.8793    0.0000 N   0  0
   13.1625   -4.6285    0.0000 C   0  0
   11.8623   -8.3789    0.0000 C   0  0
   13.1606   -9.1293    0.0000 C   0  0
   13.1606  -10.6293    0.0000 C   0  0
   11.8609  -11.3789    0.0000 C   0  0
   10.5621  -10.6284    0.0000 C   0  0
   10.5621   -9.1284    0.0000 C   0  0
   11.8623   -5.6781    0.0000 O   0  0
   11.8609  -12.8789    0.0000 Cl  0  0
  1  2  1  0
  2  3  1  0
  3  4  1  0
  4  5  1  0
  5  6  1  0
  6  1  1  0
  1  7  1  0
  7  8  1  0
  8  9  1  0
  9 10  2  0
 10 11  1  0
 11 12  2  0
 12 13  1  0
 13  8  2  0
  7 14  1  0
 14 15  1  0
 15 16  2  0
 16 17  1  0
 17 18  2  0
 18 19  1  0
 19 14  2  0
  7 20  1  0
 17 21  1  0
M  END
> <Work Package>
D

> <Target ID>
P4_D_HPD033-3P3

> <Smiles>
ClC(C=C1)=CC=C1C(C2CCCCC2)(O)C3=CN=CC=C3

> <Status >
Completed - in test

> <Target Proposed by>
Mycetos Github

> <Synthesis by>
HDuong

$$$$
Chemistry 10
  SciTegic06242012552D

 18 19  0  0  0  0            999 V2000
   10.5625   -5.9236    0.0000 C   0  0
   10.5625   -4.4236    0.0000 C   0  0
    9.2635   -3.6736    0.0000 C   0  0
    7.9645   -4.4236    0.0000 C   0  0
   11.8623   -6.6740    0.0000 C   0  0
   13.1625   -5.9244    0.0000 C   0  0
   14.4611   -6.6752    0.0000 C   0  0
   15.7606   -5.9261    0.0000 C   0  0
   15.7606   -4.4261    0.0000 C   0  0
   14.4630   -3.6752    0.0000 N   0  0
   13.1625   -4.4244    0.0000 C   0  0
   11.8623   -8.1748    0.0000 C   0  0
   13.1606   -8.9252    0.0000 C   0  0
   13.1606  -10.4252    0.0000 C   0  0
   11.8609  -11.1748    0.0000 C   0  0
   10.5621  -10.4243    0.0000 C   0  0
   10.5621   -8.9243    0.0000 C   0  0
   11.8623   -5.4740    0.0000 O   0  0
  1  2  1  0
  2  3  1  0
  3  4  1  0
  1  5  1  0
  5  6  1  0
  6  7  1  0
  7  8  2  0
  8  9  1  0
  9 10  2  0
 10 11  1  0
 11  6  2  0
  5 12  1  0
 12 13  1  0
 13 14  2  0
 14 15  1  0
 15 16  2  0
 16 17  1  0
 17 12  2  0
  5 18  1  0
M  END
> <Work Package>
D

> <Target ID>
P4_D_HPD033-2P4

> <Smiles>
OC(CCCC)(C1=CC=C(Br)C=C1)C2=CN=CC=C2

> <Status >
Completed - in test

> <Target Proposed by>
Mycetos Github

> <Synthesis by>
HDuong

$$$$
Chemistry 1
  SciTegic06242012552D

 20 22  0  0  0  0            999 V2000
    2.3662   -3.1177    0.0000 O   0  0
    2.7770   -1.9902    0.0000 C   0  0
    1.2990   -2.2506    0.0000 C   0  0
    1.1610   -3.7314    0.0000 C   0  0
   -0.3063   -4.0430    0.0000 C   0  0
   -1.0561   -2.7438    0.0000 C   0  0
   -0.0522   -1.6293    0.0000 C   0  0
    1.8123   -0.8405    0.0000 C   0  0
    2.3253    0.5690    0.0000 C   0  0
    1.3611    1.7181    0.0000 C   0  0
   -0.1161    1.4576    0.0000 C   0  0
   -0.8875    2.3769    0.0000 Br  0  0
   -0.6291    0.0481    0.0000 C   0  0
    0.3351   -1.1010    0.0000 C   0  0
    4.2552   -1.7305    0.0000 C   0  0
    5.2186   -2.8802    0.0000 C   0  0
    6.6960   -2.6207    0.0000 N   0  0
    7.2099   -1.2114    0.0000 C   0  0
    6.2465   -0.0618    0.0000 C   0  0
    4.7691   -0.3213    0.0000 C   0  0
  1  2  1  0
  2  3  1  0
  3  4  1  0
  4  5  1  0
  5  6  1  0
  6  7  1  0
  7  3  1  0
  2  8  1  0
  8  9  2  3
  9 10  1  0
 10 11  2  3
 11 12  1  0
 11 13  1  0
 13 14  2  3
 14  8  1  0
  2 15  1  0
 15 16  2  3
 16 17  1  0
 17 18  2  3
 18 19  1  0
 19 20  2  3
 20 15  1  0
M  END
> <Work Package>
D

> <Target ID>
P4_D_HPD034-4

> <Smiles>
OC(C1CCCC1)(c2ccc(Br)cc2)c3cccnc3

> <Status >
Ongoing

> <Target Proposed by>
Mycetos Github

> <Synthesis by>
HDuong

$$$$
Chemistry 2
  SciTegic06242012552D

 22 24  0  0  0  0            999 V2000
    2.3383   -1.3500    0.0000 Cl  0  0
    1.2990   -0.7500    0.0000 C   0  0
    1.2990    0.7500    0.0000 C   0  0
    0.0000    1.5000    0.0000 C   0  0
    0.0000   -1.5000    0.0000 C   0  0
   -1.2990   -0.7500    0.0000 C   0  0
   -1.2990    0.7500    0.0000 C   0  0
   -2.2638    1.8997    0.0000 C   0  0
   -3.7419    1.6400    0.0000 C   0  0
   -4.2559    0.2308    0.0000 C   0  0
   -5.7332   -0.0288    0.0000 C   0  0
   -6.6967    1.1209    0.0000 C   0  0
   -6.1828    2.5301    0.0000 C   0  0
   -4.7054    2.7897    0.0000 C   0  0
   -1.8530    3.0272    0.0000 O   0  0
   -0.7858    2.1601    0.0000 C   0  0
    0.1782    1.0108    0.0000 C   0  0
    1.6555    1.2711    0.0000 C   0  0
    2.1687    2.6806    0.0000 C   0  0
    1.2047    3.8298    0.0000 C   0  0
   -0.2725    3.5695    0.0000 C   0  0
   -1.0437    4.4889    0.0000 Br  0  0
  1  2  1  0
  2  3  1  0
  3  4  2  3
  2  5  2  3
  5  6  1  0
  6  7  2  3
  7  4  1  0
  7  8  1  0
  8  9  1  0
  9 10  2  3
 10 11  1  0
 11 12  2  3
 12 13  1  0
 13 14  2  3
 14  9  1  0
  8 15  1  0
  8 16  1  0
 16 17  2  3
 17 18  1  0
 18 19  2  3
 19 20  1  0
 20 21  2  3
 21 16  1  0
 21 22  1  0
M  END
> <Work Package>
D

> <Target ID>
P4_D_HPD031-2

> <Smiles>
OC(c1ccccc1)(c2ccc(Cl)cc2)c3ccccc3Br

> <Status >
Ongoing

> <Target Proposed by>
Mycetos Github

> <Synthesis by>
HDuong

$$$$
Chemistry 3
  SciTegic06242012552D

 22 24  0  0  0  0            999 V2000
    2.3383   -1.3500    0.0000 Cl  0  0
    1.2990   -0.7500    0.0000 C   0  0
    1.2990    0.7500    0.0000 C   0  0
    0.0000    1.5000    0.0000 C   0  0
    0.0000   -1.5000    0.0000 C   0  0
   -1.2990   -0.7500    0.0000 C   0  0
   -1.2990    0.7500    0.0000 C   0  0
   -2.5988    1.5004    0.0000 C   0  0
   -2.5983    3.0012    0.0000 C   0  0
   -1.2991    3.7507    0.0000 C   0  0
   -1.2986    5.2507    0.0000 C   0  0
   -2.5974    6.0012    0.0000 C   0  0
   -3.8967    5.2516    0.0000 C   0  0
   -3.8971    3.7516    0.0000 C   0  0
   -2.5992    0.3004    0.0000 O   0  0
   -3.8990    0.7508    0.0000 C   0  0
   -3.9000   -0.7492    0.0000 C   0  0
   -5.1995   -1.4984    0.0000 C   0  0
   -6.4980   -0.7476    0.0000 C   0  0
   -6.4971    0.7524    0.0000 C   0  0
   -5.1976    1.5016    0.0000 C   0  0
   -5.1968    2.7016    0.0000 Br  0  0
  1  2  1  0
  2  3  1  0
  3  4  2  3
  2  5  2  3
  5  6  1  0
  6  7  2  3
  7  4  1  0
  7  8  1  0
  8  9  1  0
  9 10  1  0
 10 11  1  0
 11 12  1  0
 12 13  1  0
 13 14  1  0
 14  9  1  0
  8 15  1  0
  8 16  1  0
 16 17  2  3
 17 18  1  0
 18 19  2  3
 19 20  1  0
 20 21  2  3
 21 16  1  0
 21 22  1  0
M  END
> <Work Package>
D

> <Target ID>
P4_D_HPD032-2

> <Smiles>
OC(C1CCCCC1)(c2ccc(Cl)cc2)c3ccccc3Br

> <Status >
Ongoing

> <Target Proposed by>
Mycetos Github

> <Synthesis by>
HDuong

$$$$
Chemistry 4
  SciTegic06242012552D

 22 24  0  0  0  0            999 V2000
    1.8530   -3.0272    0.0000 O   0  0
    2.2638   -1.8997    0.0000 C   0  0
    1.2990   -0.7500    0.0000 C   0  0
    1.2990    0.7500    0.0000 C   0  0
    0.0000    1.5000    0.0000 C   0  0
   -1.2990    0.7500    0.0000 C   0  0
   -2.3383    1.3500    0.0000 Br  0  0
   -1.2990   -0.7500    0.0000 C   0  0
    0.0000   -1.5000    0.0000 C   0  0
    3.7419   -1.6400    0.0000 C   0  0
    4.7054   -2.7897    0.0000 C   0  0
    6.1828   -2.5302    0.0000 C   0  0
    6.6967   -1.1209    0.0000 C   0  0
    7.8786   -0.9133    0.0000 Cl  0  0
    5.7332    0.0287    0.0000 C   0  0
    4.2559   -0.2308    0.0000 C   0  0
    0.7858   -2.1601    0.0000 C   0  0
    0.2725   -3.5695    0.0000 C   0  0
   -1.2047   -3.8298    0.0000 C   0  0
   -2.1687   -2.6805    0.0000 C   0  0
   -1.6555   -1.2711    0.0000 C   0  0
   -0.1782   -1.0108    0.0000 C   0  0
  1  2  1  0
  2  3  1  0
  3  4  2  3
  4  5  1  0
  5  6  2  3
  6  7  1  0
  6  8  1  0
  8  9  2  3
  9  3  1  0
  2 10  1  0
 10 11  2  3
 11 12  1  0
 12 13  2  3
 13 14  1  0
 13 15  1  0
 15 16  2  3
 16 10  1  0
  2 17  1  0
 17 18  2  3
 18 19  1  0
 19 20  2  3
 20 21  1  0
 21 22  2  3
 22 17  1  0
M  END
> <Work Package>
D

> <Target ID>
P4_D_HPD041-2

> <Smiles>
OC(c1ccccc1)(c2ccc(Cl)cc2)c3ccc(Br)cc3

> <Status >
Ongoing

> <Target Proposed by>
Mycetos Github

> <Synthesis by>
HDuong

$$$$
Chemistry 5
  SciTegic06242012552D

 22 24  0  0  0  0            999 V2000
    1.8530   -3.0272    0.0000 O   0  0
    2.2638   -1.8997    0.0000 C   0  0
    1.2990   -0.7500    0.0000 C   0  0
    1.2990    0.7500    0.0000 C   0  0
    0.0000    1.5000    0.0000 C   0  0
   -1.2990    0.7500    0.0000 C   0  0
   -2.3383    1.3500    0.0000 Br  0  0
   -1.2990   -0.7500    0.0000 C   0  0
    0.0000   -1.5000    0.0000 C   0  0
    3.7419   -1.6400    0.0000 C   0  0
    4.7054   -2.7897    0.0000 C   0  0
    6.1828   -2.5302    0.0000 C   0  0
    6.6967   -1.1209    0.0000 C   0  0
    7.8786   -0.9133    0.0000 Cl  0  0
    5.7332    0.0287    0.0000 C   0  0
    4.2559   -0.2308    0.0000 C   0  0
    0.7858   -2.1601    0.0000 C   0  0
    0.2725   -3.5695    0.0000 C   0  0
   -1.2047   -3.8298    0.0000 N   0  0
   -2.1687   -2.6805    0.0000 C   0  0
   -1.6555   -1.2711    0.0000 C   0  0
   -0.1782   -1.0108    0.0000 C   0  0
  1  2  1  0
  2  3  1  0
  3  4  2  3
  4  5  1  0
  5  6  2  3
  6  7  1  0
  6  8  1  0
  8  9  2  3
  9  3  1  0
  2 10  1  0
 10 11  2  3
 11 12  1  0
 12 13  2  3
 13 14  1  0
 13 15  1  0
 15 16  2  3
 16 10  1  0
  2 17  1  0
 17 18  2  3
 18 19  1  0
 19 20  2  3
 20 21  1  0
 21 22  2  3
 22 17  1  0
M  END
> <Work Package>
D

> <Target ID>
P4_D_HPD043-1

> <Smiles>
OC(c1ccc(Cl)cc1)(c2ccc(Br)cc2)c3cccnc3

> <Status >
Ongoing

> <Target Proposed by>
Mycetos Github

> <Synthesis by>
HDuong

$$$$
Chemistry 0
  SciTegic06242012552D

 26 28  0  0  0  0            999 V2000
    7.2297   -2.3636    0.0000 C   0  0
    7.2297   -3.5498    0.0000 C   0  0
    8.2553   -4.1340    0.0000 C   0  0
    9.2720   -3.5445    0.0000 C   0  0
    9.2720   -2.3630    0.0000 C   0  0
    8.2528   -1.7733    0.0000 N   0  0
   10.2952   -4.1352    0.0000 C   0  0
   11.3183   -3.5445    0.0000 C   0  0
   11.3183   -2.3629    0.0000 C   0  0
   12.3393   -1.7749    0.0000 C   0  0
   13.3628   -2.3658    0.0000 C   0  0
   13.3628   -3.5414    0.0000 C   0  0
   12.3459   -4.1377    0.0000 C   0  0
   12.3459   -5.3192    0.0000 F   0  0
   10.2952   -5.3167    0.0000 N   0  0
   11.3183   -5.9074    0.0000 C   0  0
   11.3183   -7.0888    0.0000 C   0  0
   10.2951   -7.6795    0.0000 N   0  0
    9.2720   -7.0888    0.0000 C   0  0
    9.2720   -5.9074    0.0000 C   0  0
   10.2951   -8.8610    0.0000 C   0  0
   11.3183   -9.4517    0.0000 O   0  0
   12.3415   -8.8609    0.0000 C   0  0
   13.3646   -9.4516    0.0000 C   0  0
    9.2719   -9.4517    0.0000 O   0  0
   10.2951   -1.7722    0.0000 Cl  0  0
  1  2  1  0
  2  3  2  0
  3  4  1  0
  4  5  2  0
  5  6  1  0
  6  1  2  0
  4  7  1  0
  7  8  1  0
  9  8  2  0
 10  9  1  0
 11 10  2  0
 12 11  1  0
 13 12  2  0
  8 13  1  0
 13 14  1  0
  7 15  1  0
 16 15  1  0
 17 16  1  0
 18 17  1  0
 19 18  1  0
 20 19  1  0
 15 20  1  0
 18 21  1  0
 21 22  1  0
 22 23  1  0
 23 24  1  0
 21 25  2  0
  9 26  1  0
M  END
> <Work Package>
E

> <Target ID>
P4_E_001

> <Smiles>
CCOC(=O)N1CCN(CC1)C(c2cccnc2)c3c(F)cccc3Cl

> <Status >
Ongoing

> <Target Proposed by>
University of Washington Tacoma

> <Synthesis by>
University of Washington (Laura Murphy)

$$$$
Chemistry 0
  SciTegic06242012552D

 26 28  0  0  0  0            999 V2000
    7.8326   -2.3642    0.0000 C   0  0
    7.8326   -3.5504    0.0000 C   0  0
    8.8582   -4.1346    0.0000 C   0  0
    9.8748   -3.5451    0.0000 C   0  0
    9.8748   -2.3636    0.0000 C   0  0
    8.8557   -1.7739    0.0000 N   0  0
   10.8981   -4.1358    0.0000 C   0  0
   11.9212   -3.5451    0.0000 C   0  0
   11.9212   -2.3635    0.0000 C   0  0
   12.9422   -1.7755    0.0000 C   0  0
   13.9657   -2.3664    0.0000 C   0  0
   13.9657   -3.5420    0.0000 C   0  0
   12.9488   -4.1383    0.0000 C   0  0
   10.8981   -5.3173    0.0000 N   0  0
   11.9212   -5.9079    0.0000 C   0  0
   11.9212   -7.0894    0.0000 C   0  0
   10.8980   -7.6801    0.0000 N   0  0
    9.8748   -7.0894    0.0000 C   0  0
    9.8748   -5.9079    0.0000 C   0  0
   10.8980   -8.8616    0.0000 C   0  0
   11.9212   -9.4523    0.0000 O   0  0
   12.9444   -8.8615    0.0000 C   0  0
   13.9675   -9.4521    0.0000 C   0  0
    9.8748   -9.4523    0.0000 O   0  0
   14.9888   -1.7756    0.0000 F   0  0
   12.9488   -5.3197    0.0000 Cl  0  0
  1  2  1  0
  2  3  2  0
  3  4  1  0
  4  5  2  0
  5  6  1  0
  6  1  2  0
  4  7  1  0
  7  8  1  0
  9  8  2  0
 10  9  1  0
 11 10  2  0
 12 11  1  0
 13 12  2  0
  8 13  1  0
  7 14  1  0
 15 14  1  0
 16 15  1  0
 17 16  1  0
 18 17  1  0
 19 18  1  0
 14 19  1  0
 17 20  1  0
 20 21  1  0
 21 22  1  0
 22 23  1  0
 20 24  2  0
 11 25  1  0
 13 26  1  0
M  END
> <Work Package>
E

> <Target ID>
P4_E_002

> <Smiles>
CCOC(=O)N1CCN(CC1)C(c2cccnc2)c3ccc(F)cc3Cl

> <Status >
Ongoing

> <Target Proposed by>
University of Washington Tacoma

> <Synthesis by>
University of Washington (Laura Murphy)

$$$$
Chemistry 0
  SciTegic06242012552D

 26 28  0  0  0  0            999 V2000
    7.8326   -2.3642    0.0000 C   0  0
    7.8326   -3.5504    0.0000 C   0  0
    8.8582   -4.1346    0.0000 C   0  0
    9.8748   -3.5451    0.0000 C   0  0
    9.8748   -2.3636    0.0000 C   0  0
    8.8557   -1.7739    0.0000 N   0  0
   10.8981   -4.1358    0.0000 C   0  0
   11.9212   -3.5451    0.0000 C   0  0
   11.9212   -2.3635    0.0000 C   0  0
   12.9422   -1.7755    0.0000 C   0  0
   13.9657   -2.3664    0.0000 C   0  0
   13.9657   -3.5420    0.0000 C   0  0
   12.9488   -4.1383    0.0000 C   0  0
   12.9488   -5.3198    0.0000 F   0  0
   10.8981   -5.3173    0.0000 N   0  0
   11.9212   -5.9079    0.0000 C   0  0
   11.9212   -7.0894    0.0000 C   0  0
   10.8980   -7.6801    0.0000 N   0  0
    9.8748   -7.0894    0.0000 C   0  0
    9.8748   -5.9079    0.0000 C   0  0
   10.8980   -8.8616    0.0000 C   0  0
   11.9212   -9.4523    0.0000 O   0  0
   12.9444   -8.8615    0.0000 C   0  0
   13.9675   -9.4521    0.0000 C   0  0
    9.8748   -9.4523    0.0000 O   0  0
   12.9422   -0.5940    0.0000 Cl  0  0
  1  2  1  0
  2  3  2  0
  3  4  1  0
  4  5  2  0
  5  6  1  0
  6  1  2  0
  4  7  1  0
  7  8  1  0
  9  8  2  0
 10  9  1  0
 11 10  2  0
 12 11  1  0
 13 12  2  0
  8 13  1  0
 13 14  1  0
  7 15  1  0
 16 15  1  0
 17 16  1  0
 18 17  1  0
 19 18  1  0
 20 19  1  0
 15 20  1  0
 18 21  1  0
 21 22  1  0
 22 23  1  0
 23 24  1  0
 21 25  2  0
 10 26  1  0
M  END
> <Work Package>
E

> <Target ID>
P4_E_003

> <Smiles>
CCOC(=O)N1CCN(CC1)C(c2cccnc2)c3cc(Cl)ccc3F

> <Status >
Ongoing

> <Target Proposed by>
University of Washington Tacoma

> <Synthesis by>
University of Washington (Laura Murphy)

$$$$
Chemistry 0
  SciTegic06242012552D

 26 28  0  0  0  0            999 V2000
    7.8326   -2.9535    0.0000 C   0  0
    7.8326   -4.1397    0.0000 C   0  0
    8.8582   -4.7240    0.0000 C   0  0
    9.8748   -4.1345    0.0000 C   0  0
    9.8748   -2.9530    0.0000 C   0  0
    8.8557   -2.3633    0.0000 N   0  0
   10.8981   -4.7251    0.0000 C   0  0
   11.9212   -4.1345    0.0000 C   0  0
   11.9212   -2.9529    0.0000 C   0  0
   12.9422   -2.3648    0.0000 C   0  0
   13.9657   -2.9558    0.0000 C   0  0
   13.9657   -4.1314    0.0000 C   0  0
   12.9488   -4.7277    0.0000 C   0  0
   12.9422   -1.1834    0.0000 Cl  0  0
   10.8981   -5.9067    0.0000 N   0  0
   11.9212   -6.4972    0.0000 C   0  0
   11.9212   -7.6788    0.0000 C   0  0
   10.8980   -8.2694    0.0000 N   0  0
    9.8748   -7.6788    0.0000 C   0  0
    9.8748   -6.4972    0.0000 C   0  0
   10.8980   -9.4510    0.0000 C   0  0
   11.9212  -10.0417    0.0000 O   0  0
   12.9444   -9.4509    0.0000 C   0  0
   13.9675  -10.0415    0.0000 C   0  0
    9.8748  -10.0417    0.0000 O   0  0
   14.9888   -2.3650    0.0000 F   0  0
  1  2  1  0
  2  3  2  0
  3  4  1  0
  4  5  2  0
  5  6  1  0
  6  1  2  0
  4  7  1  0
  7  8  1  0
  9  8  2  0
 10  9  1  0
 11 10  2  0
 12 11  1  0
 13 12  2  0
  8 13  1  0
 10 14  1  0
  7 15  1  0
 16 15  1  0
 17 16  1  0
 18 17  1  0
 19 18  1  0
 20 19  1  0
 15 20  1  0
 18 21  1  0
 21 22  1  0
 22 23  1  0
 23 24  1  0
 21 25  2  0
 11 26  1  0
M  END
> <Work Package>
E

> <Target ID>
P4_E_004

> <Smiles>
CCOC(=O)N1CCN(CC1)C(c2cccnc2)c3ccc(F)c(Cl)c3

> <Status >
Ongoing

> <Target Proposed by>
University of Washington Tacoma

> <Synthesis by>
University of Washington (Laura Murphy)

$$$$
Chemistry 0
  SciTegic06242012552D

 26 28  0  0  0  0            999 V2000
    7.3042   -2.9535    0.0000 C   0  0
    7.3042   -4.1397    0.0000 C   0  0
    8.3298   -4.7240    0.0000 C   0  0
    9.3464   -4.1345    0.0000 C   0  0
    9.3464   -2.9530    0.0000 C   0  0
    8.3273   -2.3633    0.0000 N   0  0
   10.3697   -4.7251    0.0000 C   0  0
   11.3928   -4.1345    0.0000 C   0  0
   11.3928   -2.9529    0.0000 C   0  0
   12.4138   -2.3648    0.0000 C   0  0
   13.4373   -2.9558    0.0000 C   0  0
   13.4373   -4.1314    0.0000 C   0  0
   12.4204   -4.7277    0.0000 C   0  0
   12.4138   -1.1834    0.0000 Cl  0  0
   10.3697   -5.9067    0.0000 N   0  0
   11.3928   -6.4972    0.0000 C   0  0
   11.3928   -7.6788    0.0000 C   0  0
   10.3696   -8.2694    0.0000 N   0  0
    9.3464   -7.6788    0.0000 C   0  0
    9.3464   -6.4972    0.0000 C   0  0
   10.3696   -9.4510    0.0000 C   0  0
   11.3928  -10.0417    0.0000 O   0  0
   12.4160   -9.4509    0.0000 C   0  0
   13.4391  -10.0415    0.0000 C   0  0
    9.3464  -10.0417    0.0000 O   0  0
   14.4605   -4.7221    0.0000 F   0  0
  1  2  1  0
  2  3  2  0
  3  4  1  0
  4  5  2  0
  5  6  1  0
  6  1  2  0
  4  7  1  0
  7  8  1  0
  9  8  2  0
 10  9  1  0
 11 10  2  0
 12 11  1  0
 13 12  2  0
  8 13  1  0
 10 14  1  0
  7 15  1  0
 16 15  1  0
 17 16  1  0
 18 17  1  0
 19 18  1  0
 20 19  1  0
 15 20  1  0
 18 21  1  0
 21 22  1  0
 22 23  1  0
 23 24  1  0
 21 25  2  0
 12 26  1  0
M  END
> <Work Package>
E

> <Target ID>
P4_E_005

> <Smiles>
CCOC(=O)N1CCN(CC1)C(c2cccnc2)c3cc(F)cc(Cl)c3

> <Status >
Ongoing

> <Target Proposed by>
University of Washington Tacoma

> <Synthesis by>
University of Washington (Laura Murphy)

$$$$
Chemistry 0
  SciTegic06242012552D

 26 28  0  0  0  0            999 V2000
    7.8326   -2.3642    0.0000 C   0  0
    7.8326   -3.5504    0.0000 C   0  0
    8.8582   -4.1346    0.0000 C   0  0
    9.8748   -3.5451    0.0000 C   0  0
    9.8748   -2.3636    0.0000 N   0  0
    8.8557   -1.7739    0.0000 C   0  0
   10.8981   -4.1358    0.0000 C   0  0
   11.9212   -3.5451    0.0000 C   0  0
   11.9212   -2.3635    0.0000 C   0  0
   12.9422   -1.7755    0.0000 C   0  0
   13.9657   -2.3664    0.0000 C   0  0
   13.9657   -3.5420    0.0000 C   0  0
   12.9488   -4.1383    0.0000 C   0  0
   12.9488   -5.3198    0.0000 F   0  0
   10.8981   -5.3173    0.0000 N   0  0
   11.9212   -5.9079    0.0000 C   0  0
   11.9212   -7.0894    0.0000 C   0  0
   10.8980   -7.6801    0.0000 N   0  0
    9.8748   -7.0894    0.0000 C   0  0
    9.8748   -5.9079    0.0000 C   0  0
   10.8980   -8.8616    0.0000 C   0  0
   11.9212   -9.4523    0.0000 O   0  0
   12.9444   -8.8615    0.0000 C   0  0
   13.9675   -9.4521    0.0000 C   0  0
    9.8748   -9.4523    0.0000 O   0  0
   14.9888   -1.7756    0.0000 Cl  0  0
  1  2  1  0
  2  3  2  0
  3  4  1  0
  4  5  2  0
  5  6  1  0
  6  1  2  0
  4  7  1  0
  7  8  1  0
  9  8  2  0
 10  9  1  0
 11 10  2  0
 12 11  1  0
 13 12  2  0
  8 13  1  0
 13 14  1  0
  7 15  1  0
 16 15  1  0
 17 16  1  0
 18 17  1  0
 19 18  1  0
 20 19  1  0
 15 20  1  0
 18 21  1  0
 21 22  1  0
 22 23  1  0
 23 24  1  0
 21 25  2  0
 11 26  1  0
M  END
> <Work Package>
E

> <Target ID>
P4_E_006

> <Smiles>
CCOC(=O)N1CCN(CC1)C(c2ccccn2)c3ccc(Cl)cc3F

> <Status >
Ongoing

> <Target Proposed by>
University of Washington Tacoma

> <Synthesis by>
University of Washington (Laura Murphy)

$$$$
Chemistry 0
  SciTegic06242012552D

 26 28  0  0  0  0            999 V2000
    7.8326   -2.3642    0.0000 C   0  0
    7.8326   -3.5504    0.0000 C   0  0
    8.8582   -4.1346    0.0000 N   0  0
    9.8748   -3.5451    0.0000 C   0  0
    9.8748   -2.3636    0.0000 C   0  0
    8.8557   -1.7739    0.0000 C   0  0
   10.8981   -4.1358    0.0000 C   0  0
   11.9212   -3.5451    0.0000 C   0  0
   11.9212   -2.3635    0.0000 C   0  0
   12.9422   -1.7755    0.0000 C   0  0
   13.9657   -2.3664    0.0000 C   0  0
   13.9657   -3.5420    0.0000 C   0  0
   12.9488   -4.1383    0.0000 C   0  0
   12.9488   -5.3198    0.0000 F   0  0
   10.8980   -1.7728    0.0000 Cl  0  0
   10.8981   -5.3173    0.0000 N   0  0
   11.9212   -5.9079    0.0000 C   0  0
   11.9212   -7.0894    0.0000 C   0  0
   10.8980   -7.6801    0.0000 N   0  0
    9.8748   -7.0894    0.0000 C   0  0
    9.8748   -5.9079    0.0000 C   0  0
   10.8980   -8.8616    0.0000 C   0  0
   11.9212   -9.4523    0.0000 O   0  0
   12.9444   -8.8615    0.0000 C   0  0
   13.9675   -9.4521    0.0000 C   0  0
    9.8748   -9.4523    0.0000 O   0  0
  1  2  1  0
  2  3  2  0
  3  4  1  0
  4  5  2  0
  5  6  1  0
  6  1  2  0
  4  7  1  0
  7  8  1  0
  9  8  2  0
 10  9  1  0
 11 10  2  0
 12 11  1  0
 13 12  2  0
  8 13  1  0
 13 14  1  0
  9 15  1  0
  7 16  1  0
 17 16  1  0
 18 17  1  0
 19 18  1  0
 20 19  1  0
 21 20  1  0
 16 21  1  0
 19 22  1  0
 22 23  1  0
 23 24  1  0
 24 25  1  0
 22 26  2  0
M  END
> <Work Package>
E

> <Target ID>
P4_E_007

> <Smiles>
CCOC(=O)N1CCN(CC1)C(c2ccccn2)c3c(F)cccc3Cl

> <Status >
Ongoing

> <Target Proposed by>
University of Washington Tacoma

> <Synthesis by>
University of Washington (Laura Murphy)

$$$$
Chemistry 0
  SciTegic06242012552D

 26 28  0  0  0  0            999 V2000
    7.8326   -2.9536    0.0000 C   0  0
    7.8326   -4.1398    0.0000 C   0  0
    8.8582   -4.7240    0.0000 N   0  0
    9.8748   -4.1345    0.0000 C   0  0
    9.8748   -2.9530    0.0000 C   0  0
    8.8557   -2.3633    0.0000 C   0  0
   10.8981   -4.7252    0.0000 C   0  0
   11.9212   -4.1345    0.0000 C   0  0
   11.9212   -2.9529    0.0000 C   0  0
   12.9422   -2.3649    0.0000 C   0  0
   13.9657   -2.9558    0.0000 C   0  0
   13.9657   -4.1314    0.0000 C   0  0
   12.9488   -4.7277    0.0000 C   0  0
   12.9488   -5.9092    0.0000 F   0  0
   12.9422   -1.1834    0.0000 Cl  0  0
   10.8981   -5.9067    0.0000 N   0  0
   11.9212   -6.4973    0.0000 C   0  0
   11.9212   -7.6788    0.0000 C   0  0
   10.8980   -8.2695    0.0000 N   0  0
    9.8748   -7.6788    0.0000 C   0  0
    9.8748   -6.4973    0.0000 C   0  0
   10.8980   -9.4510    0.0000 C   0  0
   11.9212  -10.0417    0.0000 O   0  0
   12.9444   -9.4509    0.0000 C   0  0
   13.9675  -10.0415    0.0000 C   0  0
    9.8748  -10.0417    0.0000 O   0  0
  1  2  1  0
  2  3  2  0
  3  4  1  0
  4  5  2  0
  5  6  1  0
  6  1  2  0
  4  7  1  0
  7  8  1  0
  9  8  2  0
 10  9  1  0
 11 10  2  0
 12 11  1  0
 13 12  2  0
  8 13  1  0
 13 14  1  0
 10 15  1  0
  7 16  1  0
 17 16  1  0
 18 17  1  0
 19 18  1  0
 20 19  1  0
 21 20  1  0
 16 21  1  0
 19 22  1  0
 22 23  1  0
 23 24  1  0
 24 25  1  0
 22 26  2  0
M  END
> <Work Package>
E

> <Target ID>
P4_E_008

> <Smiles>
CCOC(=O)N1CCN(CC1)C(c2ccccn2)c3cc(Cl)ccc3F

> <Status >
Ongoing

> <Target Proposed by>
University of Washington Tacoma

> <Synthesis by>
University of Washington (Laura Murphy)

$$$$
Chemistry 0
  SciTegic06242012552D

 26 28  0  0  0  0            999 V2000
    7.3042   -2.3636    0.0000 C   0  0
    7.3042   -3.5498    0.0000 C   0  0
    8.3298   -4.1340    0.0000 C   0  0
    9.3464   -3.5445    0.0000 C   0  0
    9.3464   -2.3630    0.0000 N   0  0
    8.3273   -1.7733    0.0000 C   0  0
   10.3697   -4.1352    0.0000 C   0  0
   11.3928   -3.5445    0.0000 C   0  0
   11.3928   -2.3629    0.0000 C   0  0
   12.4138   -1.7749    0.0000 C   0  0
   13.4373   -2.3658    0.0000 C   0  0
   13.4373   -3.5414    0.0000 C   0  0
   12.4204   -4.1377    0.0000 C   0  0
   12.4204   -5.3191    0.0000 Cl  0  0
   14.4604   -1.7750    0.0000 F   0  0
   10.3697   -5.3167    0.0000 N   0  0
   11.3928   -5.9073    0.0000 C   0  0
   11.3928   -7.0888    0.0000 C   0  0
   10.3696   -7.6795    0.0000 N   0  0
    9.3464   -7.0888    0.0000 C   0  0
    9.3464   -5.9073    0.0000 C   0  0
   10.3696   -8.8610    0.0000 C   0  0
   11.3928   -9.4517    0.0000 O   0  0
   12.4160   -8.8609    0.0000 C   0  0
   13.4391   -9.4515    0.0000 C   0  0
    9.3464   -9.4517    0.0000 O   0  0
  1  2  1  0
  2  3  2  0
  3  4  1  0
  4  5  2  0
  5  6  1  0
  6  1  2  0
  4  7  1  0
  7  8  1  0
  9  8  2  0
 10  9  1  0
 11 10  2  0
 12 11  1  0
 13 12  2  0
  8 13  1  0
 13 14  1  0
 11 15  1  0
  7 16  1  0
 17 16  1  0
 18 17  1  0
 19 18  1  0
 20 19  1  0
 21 20  1  0
 16 21  1  0
 19 22  1  0
 22 23  1  0
 23 24  1  0
 24 25  1  0
 22 26  2  0
M  END
> <Work Package>
E

> <Target ID>
P4_E_009

> <Smiles>
CCOC(=O)N1CCN(CC1)C(c2ccccn2)c3ccc(F)cc3Cl

> <Status >
Ongoing

> <Target Proposed by>
University of Washington Tacoma

> <Synthesis by>
University of Washington (Laura Murphy)

$$$$
Chemistry 0
  SciTegic06242012552D

 26 28  0  0  0  0            999 V2000
    7.3042   -2.9535    0.0000 C   0  0
    7.3042   -4.1397    0.0000 C   0  0
    8.3298   -4.7240    0.0000 N   0  0
    9.3464   -4.1345    0.0000 C   0  0
    9.3464   -2.9530    0.0000 C   0  0
    8.3273   -2.3633    0.0000 C   0  0
   10.3697   -4.7251    0.0000 C   0  0
   11.3928   -4.1345    0.0000 C   0  0
   11.3928   -2.9529    0.0000 C   0  0
   12.4138   -2.3648    0.0000 C   0  0
   13.4373   -2.9558    0.0000 C   0  0
   13.4373   -4.1314    0.0000 C   0  0
   12.4204   -4.7277    0.0000 C   0  0
   14.4604   -2.3650    0.0000 F   0  0
   12.4138   -1.1834    0.0000 Cl  0  0
   10.3697   -5.9067    0.0000 N   0  0
   11.3928   -6.4972    0.0000 C   0  0
   11.3928   -7.6788    0.0000 C   0  0
   10.3696   -8.2694    0.0000 N   0  0
    9.3464   -7.6788    0.0000 C   0  0
    9.3464   -6.4972    0.0000 C   0  0
   10.3696   -9.4510    0.0000 C   0  0
   11.3928  -10.0417    0.0000 O   0  0
   12.4160   -9.4509    0.0000 C   0  0
   13.4391  -10.0415    0.0000 C   0  0
    9.3464  -10.0417    0.0000 O   0  0
  1  2  1  0
  2  3  2  0
  3  4  1  0
  4  5  2  0
  5  6  1  0
  6  1  2  0
  4  7  1  0
  7  8  1  0
  9  8  2  0
 10  9  1  0
 11 10  2  0
 12 11  1  0
 13 12  2  0
  8 13  1  0
 11 14  1  0
 10 15  1  0
  7 16  1  0
 17 16  1  0
 18 17  1  0
 19 18  1  0
 20 19  1  0
 21 20  1  0
 16 21  1  0
 19 22  1  0
 22 23  1  0
 23 24  1  0
 24 25  1  0
 22 26  2  0
M  END
> <Work Package>
E

> <Target ID>
P4_E_010

> <Smiles>
CCOC(=O)N1CCN(CC1)C(c2ccc(F)c(Cl)c2)c3ccccn3

> <Status >
Ongoing

> <Target Proposed by>
University of Washington Tacoma

> <Synthesis by>
University of Washington (Laura Murphy)

$$$$
Chemistry 0
  SciTegic06242012552D

 26 28  0  0  0  0            999 V2000
    7.3042   -2.9535    0.0000 C   0  0
    7.3042   -4.1397    0.0000 C   0  0
    8.3298   -4.7240    0.0000 N   0  0
    9.3464   -4.1345    0.0000 C   0  0
    9.3464   -2.9530    0.0000 C   0  0
    8.3273   -2.3633    0.0000 C   0  0
   10.3697   -4.7251    0.0000 C   0  0
   11.3928   -4.1345    0.0000 C   0  0
   11.3928   -2.9529    0.0000 C   0  0
   12.4138   -2.3648    0.0000 C   0  0
   13.4373   -2.9558    0.0000 C   0  0
   13.4373   -4.1314    0.0000 C   0  0
   12.4204   -4.7277    0.0000 C   0  0
   14.4605   -4.7221    0.0000 F   0  0
   12.4138   -1.1834    0.0000 Cl  0  0
   10.3697   -5.9067    0.0000 N   0  0
   11.3928   -6.4972    0.0000 C   0  0
   11.3928   -7.6788    0.0000 C   0  0
   10.3696   -8.2694    0.0000 N   0  0
    9.3464   -7.6788    0.0000 C   0  0
    9.3464   -6.4972    0.0000 C   0  0
   10.3696   -9.4510    0.0000 C   0  0
   11.3928  -10.0417    0.0000 O   0  0
   12.4160   -9.4509    0.0000 C   0  0
   13.4391  -10.0415    0.0000 C   0  0
    9.3464  -10.0417    0.0000 O   0  0
  1  2  1  0
  2  3  2  0
  3  4  1  0
  4  5  2  0
  5  6  1  0
  6  1  2  0
  4  7  1  0
  7  8  1  0
  9  8  2  0
 10  9  1  0
 11 10  2  0
 12 11  1  0
 13 12  2  0
  8 13  1  0
 12 14  1  0
 10 15  1  0
  7 16  1  0
 17 16  1  0
 18 17  1  0
 19 18  1  0
 20 19  1  0
 21 20  1  0
 16 21  1  0
 19 22  1  0
 22 23  1  0
 23 24  1  0
 24 25  1  0
 22 26  2  0
M  END
> <Work Package>
E

> <Target ID>
P4_E_011

> <Smiles>
CCOC(=O)N1CCN(CC1)C(c2cc(F)cc(Cl)c2)c3ccccn3

> <Status >
Ongoing

> <Target Proposed by>
University of Washington Tacoma

> <Synthesis by>
University of Washington (Laura Murphy)

$$$$
Chemistry 0
  SciTegic06242012552D

 30 33  0  0  0  0            999 V2000
    7.2297   -2.3627    0.0000 C   0  0
    7.2297   -3.5489    0.0000 C   0  0
    8.2553   -4.1332    0.0000 C   0  0
    9.2719   -3.5437    0.0000 C   0  0
    9.2719   -2.3622    0.0000 C   0  0
    8.2528   -1.7725    0.0000 N   0  0
   10.2952   -4.1343    0.0000 C   0  0
   11.3183   -3.5437    0.0000 C   0  0
   11.3183   -2.3621    0.0000 C   0  0
   12.3393   -1.7740    0.0000 C   0  0
   13.3628   -2.3650    0.0000 C   0  0
   13.3628   -3.5406    0.0000 C   0  0
   12.3459   -4.1369    0.0000 C   0  0
   12.3459   -5.3184    0.0000 F   0  0
   14.3859   -1.7742    0.0000 Cl  0  0
   10.2952   -5.3159    0.0000 N   0  0
   11.3183   -5.9064    0.0000 C   0  0
   11.3183   -7.0880    0.0000 C   0  0
   10.2951   -7.6786    0.0000 N   0  0
    9.2719   -7.0880    0.0000 C   0  0
    9.2719   -5.9064    0.0000 C   0  0
   10.2951   -8.8602    0.0000 C   0  0
   11.3183   -9.4509    0.0000 O   0  0
   12.3415   -8.8601    0.0000 C   0  0
   13.3646   -9.4507    0.0000 C   0  0
    9.2719   -9.4509    0.0000 O   0  0
    6.2052   -4.1396    0.0000 C   0  0
    5.1775   -3.5466    0.0000 C   0  0
    6.1979   -1.7674    0.0000 C   0  0
    5.1749   -2.3664    0.0000 C   0  0
  1  2  1  0
  2  3  2  0
  3  4  1  0
  4  5  2  0
  5  6  1  0
  6  1  2  0
  4  7  1  0
  7  8  1  0
  9  8  2  0
 10  9  1  0
 11 10  2  0
 12 11  1  0
 13 12  2  0
  8 13  1  0
 13 14  1  0
 11 15  1  0
  7 16  1  0
 17 16  1  0
 18 17  1  0
 19 18  1  0
 20 19  1  0
 21 20  1  0
 16 21  1  0
 19 22  1  0
 22 23  1  0
 23 24  1  0
 24 25  1  0
 22 26  2  0
 30 28  1  0
 29 30  2  0
 28 27  2  0
  1 29  1  0
  2 27  1  0
M  END
> <Work Package>
E

> <Target ID>
P4_E_012

> <Smiles>
CCOC(=O)N1CCN(CC1)C(c2cnc3ccccc3c2)c4ccc(Cl)cc4F

> <Status >
Ongoing

> <Target Proposed by>
University of Washington Tacoma

> <Synthesis by>
University of Washington (Laura Murphy)

$$$$
Chemistry 0
  SciTegic06242012552D

 25 27  0  0  0  0            999 V2000
   10.2993   -3.5445    0.0000 C   0  0
   11.3226   -4.1351    0.0000 C   0  0
   12.3457   -3.5445    0.0000 C   0  0
   12.3457   -2.3629    0.0000 C   0  0
   13.3667   -1.7748    0.0000 C   0  0
   14.3902   -2.3658    0.0000 C   0  0
   14.3902   -3.5414    0.0000 C   0  0
   13.3733   -4.1377    0.0000 C   0  0
   13.3733   -5.3192    0.0000 F   0  0
   15.4133   -1.7750    0.0000 Cl  0  0
   11.3226   -5.3167    0.0000 N   0  0
   12.3457   -5.9072    0.0000 C   0  0
   12.3457   -7.0888    0.0000 C   0  0
   11.3225   -7.6794    0.0000 N   0  0
   10.2993   -7.0888    0.0000 C   0  0
   10.2993   -5.9072    0.0000 C   0  0
   11.3225   -8.8610    0.0000 C   0  0
   12.3457   -9.4517    0.0000 O   0  0
   13.3689   -8.8609    0.0000 C   0  0
   14.3920   -9.4515    0.0000 C   0  0
   10.2993   -9.4517    0.0000 O   0  0
    9.2206   -4.0250    0.0000 C   0  0
    8.4303   -3.1475    0.0000 N   0  0
    9.0206   -2.1247    0.0000 O   0  0
   10.1757   -2.3701    0.0000 C   0  0
  1  2  1  0
  2  3  1  0
  4  3  2  0
  5  4  1  0
  6  5  2  0
  7  6  1  0
  8  7  2  0
  3  8  1  0
  8  9  1  0
  6 10  1  0
  2 11  1  0
 12 11  1  0
 13 12  1  0
 14 13  1  0
 15 14  1  0
 16 15  1  0
 11 16  1  0
 14 17  1  0
 17 18  1  0
 18 19  1  0
 19 20  1  0
 17 21  2  0
 24 25  1  0
 23 24  1  0
 22 23  2  0
 22  1  1  0
 25  1  2  0
M  END
> <Work Package>
E

> <Target ID>
P4_E_013

> <Smiles>
CCOC(=O)N1CCN(CC1)C(c2conc2)c3ccc(Cl)cc3F

> <Status >
Ongoing

> <Target Proposed by>
University of Washington Tacoma

> <Synthesis by>
University of Washington (Laura Murphy)

$$$$
Chemistry 0
  SciTegic06242012552D

 33 36  0  0  0  0            999 V2000
    7.2297   -2.6581    0.0000 C   0  0
    7.2297   -3.8443    0.0000 C   0  0
    8.2553   -4.4286    0.0000 C   0  0
    9.2720   -3.8391    0.0000 C   0  0
    9.2720   -2.6576    0.0000 C   0  0
    8.2528   -2.0679    0.0000 N   0  0
   10.2952   -4.4298    0.0000 C   0  0
   11.3183   -3.8391    0.0000 C   0  0
   11.3183   -2.6575    0.0000 C   0  0
   12.3393   -2.0695    0.0000 C   0  0
   13.3628   -2.6604    0.0000 C   0  0
   13.3628   -3.8360    0.0000 C   0  0
   12.3459   -4.4323    0.0000 C   0  0
   12.3459   -5.6138    0.0000 F   0  0
   14.3859   -2.0696    0.0000 Cl  0  0
   10.2952   -5.6113    0.0000 C   0  0
   11.3184   -6.2020    0.0000 O   0  0
    9.2720   -6.2020    0.0000 N   0  0
    8.2489   -5.6113    0.0000 C   0  0
    7.2257   -6.2020    0.0000 C   0  0
    7.2257   -7.3834    0.0000 N   0  0
    8.2489   -7.9742    0.0000 C   0  0
    9.2721   -7.3835    0.0000 C   0  0
    6.2026   -7.9742    0.0000 C   0  0
    5.1816   -9.7437    0.0000 C   0  0
    6.2022   -9.1557    0.0000 C   0  0
    4.1581   -9.1528    0.0000 C   0  0
    5.1750   -7.3809    0.0000 C   0  0
    4.1559   -7.9772    0.0000 C   0  0
    3.1349   -9.7435    0.0000 C   0  0
    2.2160  -10.2740    0.0000 F   0  0
    2.5333   -8.7014    0.0000 F   0  0
    3.7255  -10.7663    0.0000 F   0  0
  1  2  1  0
  2  3  2  0
  3  4  1  0
  4  5  2  0
  5  6  1  0
  6  1  2  0
  4  7  1  0
  7  8  1  0
  9  8  2  0
 10  9  1  0
 11 10  2  0
 12 11  1  0
 13 12  2  0
  8 13  1  0
 13 14  1  0
 11 15  1  0
  7 16  1  0
 16 17  2  0
 16 18  1  0
 22 23  1  0
 21 22  1  0
 20 21  1  0
 19 20  1  0
 23 18  1  0
 18 19  1  0
 21 24  1  0
 29 27  1  0
 28 29  2  0
 25 26  1  0
 27 25  2  0
 26 24  2  0
 24 28  1  0
 30 33  1  0
 30 32  1  0
 30 31  1  0
 27 30  1  0
M  END
> <Work Package>
F

> <Target ID>
P4_F_DM16

> <Smiles>
Fc1cc(Cl)ccc1C(C(=O)N2CCN(CC2)c3ccc(cc3)C(F)(F)F)c4cccnc4

> <Status >
Completed - in test

> <Target Proposed by>
Mycetos Github

> <Synthesis by>
UCL

$$$$
