Chemistry 0
  SciTegic02071916232D

 23 25  0  0  0  0            999 V2000
    3.3028   -4.6589    0.0000 C   0  0
    5.3451   -4.6583    0.0000 C   0  0
    4.3259   -4.0686    0.0000 N   0  0
    5.3451   -5.8398    0.0000 C   0  0
    3.3028   -5.8451    0.0000 C   0  0
    4.3284   -6.4293    0.0000 C   0  0
    6.3683   -6.4305    0.0000 C   0  0
    7.3914   -5.8398    0.0000 C   0  0
    8.4124   -4.0702    0.0000 C   0  0
    7.3918   -4.6582    0.0000 C   0  0
    9.4359   -4.6611    0.0000 C   0  0
    8.4190   -6.4330    0.0000 C   0  0
    9.4381   -5.8367    0.0000 C   0  0
    6.3683   -7.6120    0.0000 N   0  0
    8.4190   -7.6145    0.0000 F   0  0
   10.4590   -4.0704    0.0000 Cl  0  0
    5.3451   -8.2027    0.0000 C   0  0
    5.3451   -9.3841    0.0000 C   0  0
    6.3682   -9.9748    0.0000 N   0  0
    7.3914   -9.3841    0.0000 C   0  0
    7.3914   -8.2027    0.0000 C   0  0
    6.3682  -11.1563    0.0000 C   0  0
    7.3914  -11.7470    0.0000 C   0  0
  6  4  1  0
  5  6  2  0
  2  3  1  0
  1  5  1  0
  4  2  2  0
  3  1  2  0
  4  7  1  0
  7  8  1  0
 13 11  1  0
 12 13  2  0
  9 10  1  0
 11  9  2  0
 10  8  2  0
  8 12  1  0
  7 14  1  0
 12 15  1  0
 11 16  1  0
 20 21  1  0
 19 20  1  0
 18 19  1  0
 17 18  1  0
 21 14  1  0
 14 17  1  0
 19 22  1  0
 22 23  1  0
M  END
> <Work Package>
A

> <Target ID>
P4_A_001

> <Smiles>

> <Status (Not started, Ongoing, Completed)>
Not Started

> <Target Proposed by>
Mycetos Github

> <Synthesis by>

$$$$
Chemistry 0
  SciTegic02071916232D

 25 27  0  0  0  0            999 V2000
    9.0797   -7.3052    0.0000 C   0  0
    9.0797   -8.4914    0.0000 C   0  0
   10.1053   -9.0756    0.0000 C   0  0
   11.1220   -8.4861    0.0000 C   0  0
   11.1220   -7.3046    0.0000 C   0  0
   10.1028   -6.7149    0.0000 N   0  0
   12.1452   -9.0768    0.0000 C   0  0
   13.1683   -8.4861    0.0000 C   0  0
   13.1683   -7.3045    0.0000 C   0  0
   14.1893   -6.7165    0.0000 C   0  0
   15.2128   -7.3074    0.0000 C   0  0
   15.2128   -8.4830    0.0000 C   0  0
   14.1959   -9.0793    0.0000 C   0  0
   14.1959  -10.2608    0.0000 F   0  0
   16.2359   -6.7167    0.0000 Cl  0  0
   12.1452  -10.2583    0.0000 N   0  0
   13.1683  -10.8490    0.0000 C   0  0
   13.1683  -12.0304    0.0000 C   0  0
   12.1451  -12.6211    0.0000 N   0  0
   11.1220  -12.0304    0.0000 C   0  0
   11.1220  -10.8490    0.0000 C   0  0
   12.1451  -13.8026    0.0000 C   0  0
   13.1683  -14.3933    0.0000 C   0  0
   13.1683  -15.5747    0.0000 C   0  0
   14.1915  -16.1654    0.0000 O   0  0
  1  2  1  0
  2  3  2  0
  3  4  1  0
  4  5  2  0
  5  6  1  0
  6  1  2  0
  4  7  1  0
  7  8  1  0
  9  8  2  0
 10  9  1  0
 11 10  2  0
 12 11  1  0
 13 12  2  0
  8 13  1  0
 13 14  1  0
 11 15  1  0
  7 16  1  0
 17 16  1  0
 18 17  1  0
 19 18  1  0
 20 19  1  0
 21 20  1  0
 16 21  1  0
 19 22  1  0
 22 23  1  0
 23 24  1  0
 24 25  1  0
M  END
> <Work Package>
A

> <Target ID>
P4_A_002

> <Smiles>

> <Status (Not started, Ongoing, Completed)>
Not Started

> <Target Proposed by>
Mycetos Github

> <Synthesis by>

$$$$
Chemistry 0
  SciTegic02071916232D

 25 27  0  0  0  0            999 V2000
    9.0797   -6.3651    0.0000 C   0  0
    9.0797   -7.5513    0.0000 C   0  0
   10.1053   -8.1355    0.0000 C   0  0
   11.1220   -7.5460    0.0000 C   0  0
   11.1220   -6.3645    0.0000 C   0  0
   10.1028   -5.7748    0.0000 N   0  0
   12.1452   -8.1367    0.0000 C   0  0
   13.1683   -7.5460    0.0000 C   0  0
   13.1683   -6.3644    0.0000 C   0  0
   14.1893   -5.7764    0.0000 C   0  0
   15.2128   -6.3673    0.0000 C   0  0
   15.2128   -7.5429    0.0000 C   0  0
   14.1959   -8.1392    0.0000 C   0  0
   14.1959   -9.3207    0.0000 F   0  0
   16.2359   -5.7766    0.0000 Cl  0  0
   12.1452   -9.3182    0.0000 N   0  0
   13.1683   -9.9089    0.0000 C   0  0
   13.1683  -11.0903    0.0000 C   0  0
   12.1451  -11.6810    0.0000 N   0  0
   11.1220  -11.0903    0.0000 C   0  0
   11.1220   -9.9089    0.0000 C   0  0
   12.1451  -12.8625    0.0000 C   0  0
   13.1683  -13.4532    0.0000 C   0  0
   13.1683  -14.6346    0.0000 O   0  0
   14.1915  -15.2253    0.0000 C   0  0
  1  2  1  0
  2  3  2  0
  3  4  1  0
  4  5  2  0
  5  6  1  0
  6  1  2  0
  4  7  1  0
  7  8  1  0
  9  8  2  0
 10  9  1  0
 11 10  2  0
 12 11  1  0
 13 12  2  0
  8 13  1  0
 13 14  1  0
 11 15  1  0
  7 16  1  0
 17 16  1  0
 18 17  1  0
 19 18  1  0
 20 19  1  0
 21 20  1  0
 16 21  1  0
 19 22  1  0
 22 23  1  0
 23 24  1  0
 24 25  1  0
M  END
> <Work Package>
A

> <Target ID>
P4_A_003

> <Smiles>

> <Status (Not started, Ongoing, Completed)>
Not Started

> <Target Proposed by>
Mycetos Github

> <Synthesis by>

$$$$
Chemistry 0
  SciTegic02071916232D

 26 29  0  0  0  0            999 V2000
    9.0797   -7.3052    0.0000 C   0  0
    9.0797   -8.4914    0.0000 C   0  0
   10.1053   -9.0756    0.0000 C   0  0
   11.1220   -8.4861    0.0000 C   0  0
   11.1220   -7.3046    0.0000 C   0  0
   10.1028   -6.7149    0.0000 N   0  0
   12.1452   -9.0768    0.0000 C   0  0
   13.1683   -8.4861    0.0000 C   0  0
   13.1683   -7.3045    0.0000 C   0  0
   14.1893   -6.7165    0.0000 C   0  0
   15.2128   -7.3074    0.0000 C   0  0
   15.2128   -8.4830    0.0000 C   0  0
   14.1959   -9.0793    0.0000 C   0  0
   14.1959  -10.2608    0.0000 F   0  0
   16.2359   -6.7167    0.0000 Cl  0  0
   12.1452  -10.2583    0.0000 N   0  0
   13.1683  -10.8490    0.0000 C   0  0
   13.1683  -12.0304    0.0000 C   0  0
   12.1451  -12.6211    0.0000 N   0  0
   11.1220  -12.0304    0.0000 C   0  0
   11.1220  -10.8490    0.0000 C   0  0
   12.1451  -13.8026    0.0000 C   0  0
   13.1683  -14.3933    0.0000 C   0  0
   11.2672  -14.5931    0.0000 C   0  0
   12.9227  -15.5488    0.0000 C   0  0
   11.7477  -15.6723    0.0000 C   0  0
  1  2  1  0
  2  3  2  0
  3  4  1  0
  4  5  2  0
  5  6  1  0
  6  1  2  0
  4  7  1  0
  7  8  1  0
  9  8  2  0
 10  9  1  0
 11 10  2  0
 12 11  1  0
 13 12  2  0
  8 13  1  0
 13 14  1  0
 11 15  1  0
  7 16  1  0
 17 16  1  0
 18 17  1  0
 19 18  1  0
 20 19  1  0
 21 20  1  0
 16 21  1  0
 19 22  1  0
 22 23  1  0
 26 24  1  0
 25 26  1  0
 22 24  1  0
 23 25  1  0
M  END
> <Work Package>
A

> <Target ID>
P4_A_004

> <Smiles>

> <Status (Not started, Ongoing, Completed)>
Not Started

> <Target Proposed by>
Mycetos Github

> <Synthesis by>

$$$$
Chemistry 0
  SciTegic02071916232D

 26 28  0  0  0  0            999 V2000
    9.0797   -6.6657    0.0000 C   0  0
    9.0797   -7.8519    0.0000 C   0  0
   10.1053   -8.4361    0.0000 C   0  0
   11.1220   -7.8466    0.0000 C   0  0
   11.1220   -6.6651    0.0000 C   0  0
   10.1028   -6.0754    0.0000 N   0  0
   12.1452   -8.4373    0.0000 C   0  0
   13.1683   -7.8466    0.0000 C   0  0
   13.1683   -6.6650    0.0000 C   0  0
   14.1893   -6.0770    0.0000 C   0  0
   15.2128   -6.6679    0.0000 C   0  0
   15.2128   -7.8435    0.0000 C   0  0
   14.1959   -8.4398    0.0000 C   0  0
   14.1959   -9.6213    0.0000 F   0  0
   16.2359   -6.0772    0.0000 Cl  0  0
   12.1452   -9.6188    0.0000 N   0  0
   13.1683  -10.2095    0.0000 C   0  0
   13.1683  -11.3909    0.0000 C   0  0
   12.1451  -11.9816    0.0000 N   0  0
   11.1220  -11.3909    0.0000 C   0  0
   11.1220  -10.2095    0.0000 C   0  0
   12.1451  -13.1630    0.0000 C   0  0
   13.1683  -13.7537    0.0000 N   0  0
   11.1219  -13.7537    0.0000 O   0  0
   14.1914  -13.1630    0.0000 C   0  0
   15.2146  -13.7537    0.0000 C   0  0
  1  2  1  0
  2  3  2  0
  3  4  1  0
  4  5  2  0
  5  6  1  0
  6  1  2  0
  4  7  1  0
  7  8  1  0
  9  8  2  0
 10  9  1  0
 11 10  2  0
 12 11  1  0
 13 12  2  0
  8 13  1  0
 13 14  1  0
 11 15  1  0
  7 16  1  0
 17 16  1  0
 18 17  1  0
 19 18  1  0
 20 19  1  0
 21 20  1  0
 16 21  1  0
 19 22  1  0
 22 23  1  0
 22 24  2  0
 23 25  1  0
 25 26  1  0
M  END
> <Work Package>
A

> <Target ID>
P4_A_005

> <Smiles>

> <Status (Not started, Ongoing, Completed)>
Not Started

> <Target Proposed by>
Mycetos Github

> <Synthesis by>

$$$$
Chemistry 0
  SciTegic02071916232D

 26 28  0  0  0  0            999 V2000
    9.0797   -7.2512    0.0000 C   0  0
    9.0797   -8.4374    0.0000 C   0  0
   10.1053   -9.0216    0.0000 C   0  0
   11.1220   -8.4321    0.0000 C   0  0
   11.1220   -7.2506    0.0000 C   0  0
   10.1028   -6.6609    0.0000 N   0  0
   12.1452   -9.0228    0.0000 C   0  0
   13.1683   -8.4321    0.0000 C   0  0
   13.1683   -7.2505    0.0000 C   0  0
   14.1893   -6.6625    0.0000 C   0  0
   15.2128   -7.2534    0.0000 C   0  0
   15.2128   -8.4290    0.0000 C   0  0
   14.1959   -9.0253    0.0000 C   0  0
   14.1959  -10.2068    0.0000 F   0  0
   16.2359   -6.6627    0.0000 Cl  0  0
   12.1452  -10.2043    0.0000 N   0  0
   13.1683  -10.7949    0.0000 C   0  0
   13.1683  -11.9764    0.0000 C   0  0
   12.1451  -12.5670    0.0000 N   0  0
   11.1220  -11.9764    0.0000 C   0  0
   11.1220  -10.7949    0.0000 C   0  0
   12.1451  -13.7485    0.0000 C   0  0
   13.1683  -14.3392    0.0000 N   0  0
   14.1914  -13.7485    0.0000 C   0  0
   11.1219  -14.3392    0.0000 O   0  0
   13.1683  -15.5206    0.0000 C   0  0
  1  2  1  0
  2  3  2  0
  3  4  1  0
  4  5  2  0
  5  6  1  0
  6  1  2  0
  4  7  1  0
  7  8  1  0
  9  8  2  0
 10  9  1  0
 11 10  2  0
 12 11  1  0
 13 12  2  0
  8 13  1  0
 13 14  1  0
 11 15  1  0
  7 16  1  0
 17 16  1  0
 18 17  1  0
 19 18  1  0
 20 19  1  0
 21 20  1  0
 16 21  1  0
 19 22  1  0
 22 23  1  0
 23 24  1  0
 22 25  2  0
 23 26  1  0
M  END
> <Work Package>
A

> <Target ID>
P4_A_006

> <Smiles>

> <Status (Not started, Ongoing, Completed)>
Not Started

> <Target Proposed by>
Mycetos Github

> <Synthesis by>

$$$$
Chemistry 0
  SciTegic02071916232D

 26 28  0  0  0  0            999 V2000
    9.0797   -6.4191    0.0000 C   0  0
    9.0797   -7.6053    0.0000 C   0  0
   10.1053   -8.1895    0.0000 C   0  0
   11.1220   -7.6000    0.0000 C   0  0
   11.1220   -6.4185    0.0000 C   0  0
   10.1028   -5.8288    0.0000 N   0  0
   12.1452   -8.1907    0.0000 C   0  0
   13.1683   -7.6000    0.0000 C   0  0
   13.1683   -6.4184    0.0000 C   0  0
   14.1893   -5.8304    0.0000 C   0  0
   15.2128   -6.4213    0.0000 C   0  0
   15.2128   -7.5969    0.0000 C   0  0
   14.1959   -8.1932    0.0000 C   0  0
   14.1959   -9.3747    0.0000 F   0  0
   16.2359   -5.8306    0.0000 Cl  0  0
   12.1452   -9.3722    0.0000 N   0  0
   13.1683   -9.9629    0.0000 C   0  0
   13.1683  -11.1443    0.0000 C   0  0
   12.1451  -11.7350    0.0000 N   0  0
   11.1220  -11.1443    0.0000 C   0  0
   11.1220   -9.9629    0.0000 C   0  0
   12.1451  -12.9165    0.0000 C   0  0
   13.1683  -13.5072    0.0000 C   0  0
   13.1683  -14.6886    0.0000 N   0  0
   14.1915  -15.2793    0.0000 C   0  0
   12.1451  -15.2793    0.0000 C   0  0
  1  2  1  0
  2  3  2  0
  3  4  1  0
  4  5  2  0
  5  6  1  0
  6  1  2  0
  4  7  1  0
  7  8  1  0
  9  8  2  0
 10  9  1  0
 11 10  2  0
 12 11  1  0
 13 12  2  0
  8 13  1  0
 13 14  1  0
 11 15  1  0
  7 16  1  0
 17 16  1  0
 18 17  1  0
 19 18  1  0
 20 19  1  0
 21 20  1  0
 16 21  1  0
 19 22  1  0
 22 23  1  0
 23 24  1  0
 24 25  1  0
 24 26  1  0
M  END
> <Work Package>
A

> <Target ID>
P4_A_007

> <Smiles>

> <Status (Not started, Ongoing, Completed)>
Not Started

> <Target Proposed by>
Mycetos Github

> <Synthesis by>

$$$$
Chemistry 0
  SciTegic02071916232D

 28 31  0  0  0  0            999 V2000
    9.0797   -6.3666    0.0000 C   0  0
    9.0797   -7.5528    0.0000 C   0  0
   10.1053   -8.1370    0.0000 C   0  0
   11.1220   -7.5475    0.0000 C   0  0
   11.1220   -6.3660    0.0000 C   0  0
   10.1028   -5.7763    0.0000 N   0  0
   12.1452   -8.1382    0.0000 C   0  0
   13.1683   -7.5475    0.0000 C   0  0
   13.1683   -6.3659    0.0000 C   0  0
   14.1893   -5.7779    0.0000 C   0  0
   15.2128   -6.3688    0.0000 C   0  0
   15.2128   -7.5444    0.0000 C   0  0
   14.1959   -8.1407    0.0000 C   0  0
   14.1959   -9.3222    0.0000 F   0  0
   16.2359   -5.7781    0.0000 Cl  0  0
   12.1452   -9.3197    0.0000 N   0  0
   13.1683   -9.9104    0.0000 C   0  0
   13.1683  -11.0918    0.0000 C   0  0
   12.1451  -11.6825    0.0000 N   0  0
   11.1220  -11.0918    0.0000 C   0  0
   11.1220   -9.9104    0.0000 C   0  0
   12.1451  -12.8640    0.0000 C   0  0
   13.1683  -13.4547    0.0000 C   0  0
   15.2112  -13.4541    0.0000 C   0  0
   14.1917  -12.8642    0.0000 C   0  0
   15.2112  -14.6359    0.0000 C   0  0
   13.1683  -14.6412    0.0000 C   0  0
   14.1943  -15.2257    0.0000 C   0  0
  1  2  1  0
  2  3  2  0
  3  4  1  0
  4  5  2  0
  5  6  1  0
  6  1  2  0
  4  7  1  0
  7  8  1  0
  9  8  2  0
 10  9  1  0
 11 10  2  0
 12 11  1  0
 13 12  2  0
  8 13  1  0
 13 14  1  0
 11 15  1  0
  7 16  1  0
 17 16  1  0
 18 17  1  0
 19 18  1  0
 20 19  1  0
 21 20  1  0
 16 21  1  0
 19 22  1  0
 22 23  1  0
 28 26  1  0
 27 28  2  0
 24 25  1  0
 26 24  2  0
 25 23  2  0
 23 27  1  0
M  END
> <Work Package>
A

> <Target ID>
P4_A_008

> <Smiles>

> <Status (Not started, Ongoing, Completed)>
Not Started

> <Target Proposed by>
Mycetos Github

> <Synthesis by>

$$$$
Chemistry 0
  SciTegic02071916232D

 26 28  0  0  0  0            999 V2000
    9.0797   -6.4094    0.0000 C   0  0
    9.0797   -7.5956    0.0000 C   0  0
   10.1053   -8.1798    0.0000 C   0  0
   11.1220   -7.5903    0.0000 C   0  0
   11.1220   -6.4088    0.0000 C   0  0
   10.1028   -5.8191    0.0000 N   0  0
   12.1452   -8.1810    0.0000 C   0  0
   13.1683   -7.5903    0.0000 C   0  0
   13.1683   -6.4087    0.0000 C   0  0
   14.1893   -5.8207    0.0000 C   0  0
   15.2128   -6.4116    0.0000 C   0  0
   15.2128   -7.5872    0.0000 C   0  0
   14.1959   -8.1835    0.0000 C   0  0
   14.1959   -9.3650    0.0000 F   0  0
   16.2359   -5.8209    0.0000 Cl  0  0
   12.1452   -9.3625    0.0000 N   0  0
   13.1683   -9.9532    0.0000 C   0  0
   13.1683  -11.1346    0.0000 C   0  0
   12.1451  -11.7253    0.0000 N   0  0
   11.1220  -11.1346    0.0000 C   0  0
   11.1220   -9.9532    0.0000 C   0  0
   12.1451  -12.9068    0.0000 C   0  0
   13.1683  -13.4975    0.0000 C   0  0
   13.1683  -14.6789    0.0000 O   0  0
   14.1914  -12.9068    0.0000 O   0  0
   14.1914  -11.7253    0.0000 C   0  0
  1  2  1  0
  2  3  2  0
  3  4  1  0
  4  5  2  0
  5  6  1  0
  6  1  2  0
  4  7  1  0
  7  8  1  0
  9  8  2  0
 10  9  1  0
 11 10  2  0
 12 11  1  0
 13 12  2  0
  8 13  1  0
 13 14  1  0
 11 15  1  0
  7 16  1  0
 17 16  1  0
 18 17  1  0
 19 18  1  0
 20 19  1  0
 21 20  1  0
 16 21  1  0
 19 22  1  0
 22 23  1  0
 23 24  2  0
 23 25  1  0
 25 26  1  0
M  END
> <Work Package>
A

> <Target ID>
P4_A_009

> <Smiles>

> <Status (Not started, Ongoing, Completed)>
Not Started

> <Target Proposed by>
Mycetos Github

> <Synthesis by>

$$$$
Chemistry 0
  SciTegic02071916232D

 26 28  0  0  0  0            999 V2000
    9.0797   -6.6604    0.0000 C   0  0
    9.0797   -7.8466    0.0000 C   0  0
   10.1053   -8.4308    0.0000 C   0  0
   11.1220   -7.8413    0.0000 C   0  0
   11.1220   -6.6598    0.0000 C   0  0
   10.1028   -6.0701    0.0000 N   0  0
   12.1452   -8.4320    0.0000 C   0  0
   13.1683   -7.8413    0.0000 C   0  0
   13.1683   -6.6597    0.0000 C   0  0
   14.1893   -6.0717    0.0000 C   0  0
   15.2128   -6.6626    0.0000 C   0  0
   15.2128   -7.8382    0.0000 C   0  0
   14.1959   -8.4345    0.0000 C   0  0
   14.1959   -9.6160    0.0000 F   0  0
   16.2359   -6.0719    0.0000 Cl  0  0
   12.1452   -9.6135    0.0000 N   0  0
   13.1683  -10.2042    0.0000 C   0  0
   13.1683  -11.3856    0.0000 C   0  0
   12.1451  -11.9763    0.0000 N   0  0
   11.1220  -11.3856    0.0000 C   0  0
   11.1220  -10.2042    0.0000 C   0  0
   12.1451  -13.1578    0.0000 C   0  0
   13.1683  -13.7485    0.0000 C   0  0
   13.1683  -14.9299    0.0000 O   0  0
   14.1914  -13.1578    0.0000 N   0  0
   14.1914  -11.9763    0.0000 C   0  0
  1  2  1  0
  2  3  2  0
  3  4  1  0
  4  5  2  0
  5  6  1  0
  6  1  2  0
  4  7  1  0
  7  8  1  0
  9  8  2  0
 10  9  1  0
 11 10  2  0
 12 11  1  0
 13 12  2  0
  8 13  1  0
 13 14  1  0
 11 15  1  0
  7 16  1  0
 17 16  1  0
 18 17  1  0
 19 18  1  0
 20 19  1  0
 21 20  1  0
 16 21  1  0
 19 22  1  0
 22 23  1  0
 23 24  2  0
 23 25  1  0
 25 26  1  0
M  END
> <Work Package>
A

> <Target ID>
P4_A_010

> <Smiles>

> <Status (Not started, Ongoing, Completed)>
Not Started

> <Target Proposed by>
Mycetos Github

> <Synthesis by>

$$$$
Chemistry 0
  SciTegic02071916232D

 26 28  0  0  0  0            999 V2000
    9.0797   -6.4105    0.0000 C   0  0
    9.0797   -7.5967    0.0000 C   0  0
   10.1053   -8.1809    0.0000 C   0  0
   11.1220   -7.5914    0.0000 C   0  0
   11.1220   -6.4099    0.0000 C   0  0
   10.1028   -5.8202    0.0000 N   0  0
   12.1452   -8.1821    0.0000 C   0  0
   13.1683   -7.5914    0.0000 C   0  0
   13.1683   -6.4098    0.0000 C   0  0
   14.1893   -5.8218    0.0000 C   0  0
   15.2128   -6.4127    0.0000 C   0  0
   15.2128   -7.5883    0.0000 C   0  0
   14.1959   -8.1846    0.0000 C   0  0
   14.1959   -9.3661    0.0000 F   0  0
   16.2359   -5.8220    0.0000 Cl  0  0
   12.1452   -9.3636    0.0000 N   0  0
   13.1683   -9.9543    0.0000 C   0  0
   13.1683  -11.1357    0.0000 C   0  0
   12.1451  -11.7264    0.0000 N   0  0
   11.1220  -11.1357    0.0000 C   0  0
   11.1220   -9.9543    0.0000 C   0  0
   12.1451  -12.9079    0.0000 C   0  0
   13.1683  -13.4987    0.0000 Si  0  0
   13.1683  -14.6801    0.0000 C   0  0
   14.1914  -12.9079    0.0000 C   0  0
   14.1914  -14.0894    0.0000 C   0  0
  1  2  1  0
  2  3  2  0
  3  4  1  0
  4  5  2  0
  5  6  1  0
  6  1  2  0
  4  7  1  0
  7  8  1  0
  9  8  2  0
 10  9  1  0
 11 10  2  0
 12 11  1  0
 13 12  2  0
  8 13  1  0
 13 14  1  0
 11 15  1  0
  7 16  1  0
 17 16  1  0
 18 17  1  0
 19 18  1  0
 20 19  1  0
 21 20  1  0
 16 21  1  0
 19 22  1  0
 22 23  1  0
 23 24  1  0
 23 25  1  0
 23 26  1  0
M  END
> <Work Package>
A

> <Target ID>
P4_A_011

> <Smiles>

> <Status (Not started, Ongoing, Completed)>
Not Started

> <Target Proposed by>
Mycetos Github

> <Synthesis by>

$$$$
Chemistry 0
  SciTegic02071916232D

 25 27  0  0  0  0            999 V2000
    9.0797  -11.2144    0.0000 C   0  0
    9.0797  -12.4006    0.0000 C   0  0
   10.1053  -12.9848    0.0000 C   0  0
   11.1220  -12.3953    0.0000 C   0  0
   11.1220  -11.2138    0.0000 C   0  0
   10.1028  -10.6241    0.0000 N   0  0
   12.1452  -12.9860    0.0000 C   0  0
   13.1683  -12.3953    0.0000 C   0  0
   13.1683  -11.2137    0.0000 C   0  0
   14.1893  -10.6257    0.0000 C   0  0
   15.2128  -11.2166    0.0000 C   0  0
   15.2128  -12.3922    0.0000 C   0  0
   14.1959  -12.9885    0.0000 C   0  0
   14.1959  -14.1700    0.0000 F   0  0
   16.2359  -10.6259    0.0000 Cl  0  0
   12.1452  -14.1675    0.0000 N   0  0
   13.1683  -14.7582    0.0000 C   0  0
   13.1683  -15.9396    0.0000 C   0  0
   12.1451  -16.5303    0.0000 N   0  0
   11.1220  -15.9396    0.0000 C   0  0
   11.1220  -14.7582    0.0000 C   0  0
   12.1451  -17.7118    0.0000 Si  0  0
   13.1683  -18.3025    0.0000 C   0  0
   11.1219  -18.3025    0.0000 C   0  0
   11.1219  -17.1211    0.0000 C   0  0
  1  2  1  0
  2  3  2  0
  3  4  1  0
  4  5  2  0
  5  6  1  0
  6  1  2  0
  4  7  1  0
  7  8  1  0
  9  8  2  0
 10  9  1  0
 11 10  2  0
 12 11  1  0
 13 12  2  0
  8 13  1  0
 13 14  1  0
 11 15  1  0
  7 16  1  0
 17 16  1  0
 18 17  1  0
 19 18  1  0
 20 19  1  0
 21 20  1  0
 16 21  1  0
 19 22  1  0
 22 23  1  0
 22 24  1  0
 22 25  1  0
M  END
> <Work Package>
A

> <Target ID>
P4_A_012

> <Smiles>

> <Status (Not started, Ongoing, Completed)>
Not Started

> <Target Proposed by>
DNDI

> <Synthesis by>

$$$$
Chemistry 0
  SciTegic02071916232D

 27 30  0  0  0  0            999 V2000
    9.0797   -6.4191    0.0000 C   0  0
    9.0797   -7.6053    0.0000 C   0  0
   10.1053   -8.1895    0.0000 C   0  0
   11.1220   -7.6000    0.0000 C   0  0
   11.1220   -6.4185    0.0000 C   0  0
   10.1028   -5.8288    0.0000 N   0  0
   12.1452   -8.1907    0.0000 C   0  0
   13.1683   -7.6000    0.0000 C   0  0
   13.1683   -6.4184    0.0000 C   0  0
   14.1893   -5.8304    0.0000 C   0  0
   15.2128   -6.4213    0.0000 C   0  0
   15.2128   -7.5969    0.0000 C   0  0
   14.1959   -8.1932    0.0000 C   0  0
   14.1959   -9.3747    0.0000 F   0  0
   16.2359   -5.8306    0.0000 Cl  0  0
   12.1452   -9.3722    0.0000 N   0  0
   13.1683   -9.9629    0.0000 C   0  0
   13.1683  -11.1443    0.0000 C   0  0
   12.1451  -11.7350    0.0000 N   0  0
   11.1220  -11.1443    0.0000 C   0  0
   11.1220   -9.9629    0.0000 C   0  0
   12.1451  -12.9165    0.0000 C   0  0
   13.1683  -13.5072    0.0000 C   0  0
   13.1676  -14.6850    0.0000 C   0  0
   12.1444  -15.2762    0.0000 N   0  0
   11.1178  -13.5101    0.0000 C   0  0
   11.1250  -14.6908    0.0000 C   0  0
  1  2  1  0
  2  3  2  0
  3  4  1  0
  4  5  2  0
  5  6  1  0
  6  1  2  0
  4  7  1  0
  7  8  1  0
  9  8  2  0
 10  9  1  0
 11 10  2  0
 12 11  1  0
 13 12  2  0
  8 13  1  0
 13 14  1  0
 11 15  1  0
  7 16  1  0
 17 16  1  0
 18 17  1  0
 19 18  1  0
 20 19  1  0
 21 20  1  0
 16 21  1  0
 19 22  1  0
 22 23  2  0
 27 25  1  0
 26 27  2  0
 25 24  2  0
 22 26  1  0
 24 23  1  0
M  END
> <Work Package>
B

> <Target ID>
P4_B_001

> <Smiles>

> <Status (Not started, Ongoing, Completed)>
Not Started

> <Target Proposed by>
Mycetos Github

> <Synthesis by>

$$$$
Chemistry 0
  SciTegic02071916232D

 27 30  0  0  0  0            999 V2000
    9.0797   -6.6604    0.0000 C   0  0
    9.0797   -7.8466    0.0000 C   0  0
   10.1053   -8.4308    0.0000 C   0  0
   11.1220   -7.8413    0.0000 C   0  0
   11.1220   -6.6598    0.0000 C   0  0
   10.1028   -6.0701    0.0000 N   0  0
   12.1452   -8.4320    0.0000 C   0  0
   13.1683   -7.8413    0.0000 C   0  0
   13.1683   -6.6597    0.0000 C   0  0
   14.1893   -6.0717    0.0000 C   0  0
   15.2128   -6.6626    0.0000 C   0  0
   15.2128   -7.8382    0.0000 C   0  0
   14.1959   -8.4345    0.0000 C   0  0
   14.1959   -9.6160    0.0000 F   0  0
   16.2359   -6.0719    0.0000 Cl  0  0
   12.1452   -9.6135    0.0000 N   0  0
   13.1683  -10.2042    0.0000 C   0  0
   13.1683  -11.3856    0.0000 C   0  0
   12.1451  -11.9763    0.0000 N   0  0
   11.1220  -11.3856    0.0000 C   0  0
   11.1220  -10.2042    0.0000 C   0  0
   12.1451  -13.1578    0.0000 C   0  0
   13.1671  -14.9268    0.0000 C   0  0
   13.1682  -13.7489    0.0000 C   0  0
   12.1436  -15.5177    0.0000 C   0  0
   11.1175  -13.7511    0.0000 N   0  0
   11.1244  -14.9318    0.0000 C   0  0
  1  2  1  0
  2  3  2  0
  3  4  1  0
  4  5  2  0
  5  6  1  0
  6  1  2  0
  4  7  1  0
  7  8  1  0
  9  8  2  0
 10  9  1  0
 11 10  2  0
 12 11  1  0
 13 12  2  0
  8 13  1  0
 13 14  1  0
 11 15  1  0
  7 16  1  0
 17 16  1  0
 18 17  1  0
 19 18  1  0
 20 19  1  0
 21 20  1  0
 16 21  1  0
 19 22  1  0
 27 25  1  0
 26 27  2  0
 23 24  1  0
 25 23  2  0
 24 22  2  0
 22 26  1  0
M  END
> <Work Package>
B

> <Target ID>
P4_B_002

> <Smiles>

> <Status (Not started, Ongoing, Completed)>
Not Started

> <Target Proposed by>
Mycetos Github

> <Synthesis by>

$$$$
Chemistry 0
  SciTegic02071916232D

 29 32  0  0  0  0            999 V2000
    9.0797   -6.3666    0.0000 C   0  0
    9.0797   -7.5528    0.0000 C   0  0
   10.1053   -8.1370    0.0000 C   0  0
   11.1220   -7.5475    0.0000 C   0  0
   11.1220   -6.3660    0.0000 C   0  0
   10.1028   -5.7763    0.0000 N   0  0
   12.1452   -8.1382    0.0000 C   0  0
   13.1683   -7.5475    0.0000 C   0  0
   13.1683   -6.3659    0.0000 C   0  0
   14.1893   -5.7779    0.0000 C   0  0
   15.2128   -6.3688    0.0000 C   0  0
   15.2128   -7.5444    0.0000 C   0  0
   14.1959   -8.1407    0.0000 C   0  0
   14.1959   -9.3222    0.0000 F   0  0
   16.2359   -5.7781    0.0000 Cl  0  0
   12.1452   -9.3197    0.0000 N   0  0
   13.1683   -9.9104    0.0000 C   0  0
   13.1683  -11.0918    0.0000 C   0  0
   12.1451  -11.6825    0.0000 N   0  0
   11.1220  -11.0918    0.0000 C   0  0
   11.1220   -9.9104    0.0000 C   0  0
   12.1451  -12.8640    0.0000 C   0  0
   13.1676  -13.4547    0.0000 C   0  0
   13.1676  -14.6325    0.0000 C   0  0
   12.1444  -15.2237    0.0000 C   0  0
   11.1178  -14.6383    0.0000 C   0  0
   11.1178  -13.4576    0.0000 C   0  0
   14.1908  -12.8640    0.0000 O   0  0
   14.1908  -11.6825    0.0000 C   0  0
  1  2  1  0
  2  3  2  0
  3  4  1  0
  4  5  2  0
  5  6  1  0
  6  1  2  0
  4  7  1  0
  7  8  1  0
  9  8  2  0
 10  9  1  0
 11 10  2  0
 12 11  1  0
 13 12  2  0
  8 13  1  0
 13 14  1  0
 11 15  1  0
  7 16  1  0
 17 16  1  0
 18 17  1  0
 19 18  1  0
 20 19  1  0
 21 20  1  0
 16 21  1  0
 19 22  1  0
 22 23  2  0
 24 23  1  0
 25 24  2  0
 26 25  1  0
 27 26  2  0
 22 27  1  0
 23 28  1  0
 28 29  1  0
M  END
> <Work Package>
B

> <Target ID>
P4_B_003

> <Smiles>

> <Status (Not started, Ongoing, Completed)>
Not Started

> <Target Proposed by>
DNDI

> <Synthesis by>

$$$$
Chemistry 0
  SciTegic02071916232D

 28 31  0  0  0  0            999 V2000
    9.0797   -6.4107    0.0000 C   0  0
    9.0797   -7.5969    0.0000 C   0  0
   10.1053   -8.1811    0.0000 C   0  0
   11.1220   -7.5916    0.0000 C   0  0
   11.1220   -6.4101    0.0000 C   0  0
   10.1028   -5.8204    0.0000 N   0  0
   12.1452   -8.1823    0.0000 C   0  0
   13.1683   -7.5916    0.0000 C   0  0
   13.1683   -6.4100    0.0000 C   0  0
   14.1893   -5.8220    0.0000 C   0  0
   15.2128   -6.4129    0.0000 C   0  0
   15.2128   -7.5885    0.0000 C   0  0
   14.1959   -8.1848    0.0000 C   0  0
   14.1959   -9.3663    0.0000 F   0  0
   16.2359   -5.8222    0.0000 Cl  0  0
   12.1452   -9.3638    0.0000 N   0  0
   13.1683   -9.9545    0.0000 C   0  0
   13.1683  -11.1359    0.0000 C   0  0
   12.1451  -11.7266    0.0000 N   0  0
   11.1220  -11.1359    0.0000 C   0  0
   11.1220   -9.9545    0.0000 C   0  0
   12.1451  -12.9081    0.0000 C   0  0
   13.1676  -13.4988    0.0000 C   0  0
   13.1676  -14.6766    0.0000 C   0  0
   12.1444  -15.2678    0.0000 C   0  0
   11.1178  -14.6824    0.0000 C   0  0
   11.1178  -13.5017    0.0000 C   0  0
   14.1908  -12.9080    0.0000 F   0  0
  1  2  1  0
  2  3  2  0
  3  4  1  0
  4  5  2  0
  5  6  1  0
  6  1  2  0
  4  7  1  0
  7  8  1  0
  9  8  2  0
 10  9  1  0
 11 10  2  0
 12 11  1  0
 13 12  2  0
  8 13  1  0
 13 14  1  0
 11 15  1  0
  7 16  1  0
 17 16  1  0
 18 17  1  0
 19 18  1  0
 20 19  1  0
 21 20  1  0
 16 21  1  0
 19 22  1  0
 22 23  2  0
 24 23  1  0
 25 24  2  0
 26 25  1  0
 27 26  2  0
 22 27  1  0
 23 28  1  0
M  END
> <Work Package>
B

> <Target ID>
P4_B_004

> <Smiles>

> <Status (Not started, Ongoing, Completed)>
Not Started

> <Target Proposed by>
DNDI

> <Synthesis by>

$$$$
Chemistry 0
  SciTegic02071916232D

 31 34  0  0  0  0            999 V2000
    9.0797   -6.4107    0.0000 C   0  0
    9.0797   -7.5969    0.0000 C   0  0
   10.1053   -8.1811    0.0000 C   0  0
   11.1220   -7.5916    0.0000 C   0  0
   11.1220   -6.4101    0.0000 C   0  0
   10.1028   -5.8204    0.0000 N   0  0
   12.1452   -8.1823    0.0000 C   0  0
   13.1683   -7.5916    0.0000 C   0  0
   13.1683   -6.4100    0.0000 C   0  0
   14.1893   -5.8220    0.0000 C   0  0
   15.2128   -6.4129    0.0000 C   0  0
   15.2128   -7.5885    0.0000 C   0  0
   14.1959   -8.1848    0.0000 C   0  0
   14.1959   -9.3663    0.0000 F   0  0
   16.2359   -5.8222    0.0000 Cl  0  0
   12.1452   -9.3638    0.0000 N   0  0
   13.1683   -9.9545    0.0000 C   0  0
   13.1683  -11.1359    0.0000 C   0  0
   12.1451  -11.7266    0.0000 N   0  0
   11.1220  -11.1359    0.0000 C   0  0
   11.1220   -9.9545    0.0000 C   0  0
   12.1451  -12.9081    0.0000 C   0  0
   13.1676  -13.4988    0.0000 C   0  0
   13.1676  -14.6766    0.0000 C   0  0
   12.1444  -15.2678    0.0000 C   0  0
   11.1178  -14.6824    0.0000 C   0  0
   11.1178  -13.5017    0.0000 C   0  0
   14.1908  -12.9080    0.0000 C   0  0
   15.1097  -12.3775    0.0000 F   0  0
   14.7924  -13.9501    0.0000 F   0  0
   13.6003  -11.8853    0.0000 F   0  0
  1  2  1  0
  2  3  2  0
  3  4  1  0
  4  5  2  0
  5  6  1  0
  6  1  2  0
  4  7  1  0
  7  8  1  0
  9  8  2  0
 10  9  1  0
 11 10  2  0
 12 11  1  0
 13 12  2  0
  8 13  1  0
 13 14  1  0
 11 15  1  0
  7 16  1  0
 17 16  1  0
 18 17  1  0
 19 18  1  0
 20 19  1  0
 21 20  1  0
 16 21  1  0
 19 22  1  0
 22 23  2  0
 24 23  1  0
 25 24  2  0
 26 25  1  0
 27 26  2  0
 22 27  1  0
 28 31  1  0
 28 30  1  0
 28 29  1  0
 23 28  1  0
M  STY  1   1 SUP
M  SLB  1   1   1
M  SAL   1  4  28  29  30  31
M  SBL   1  1  34
M  SMT   1 CF3
M  SBV   1  34   -1.0200   -0.5900
M  END
> <Work Package>
B

> <Target ID>
P4_B_005

> <Smiles>

> <Status (Not started, Ongoing, Completed)>
Not Started

> <Target Proposed by>
DNDI

> <Synthesis by>

$$$$
Chemistry 0
  SciTegic02071916232D

 29 32  0  0  0  0            999 V2000
    9.0797   -6.4107    0.0000 C   0  0
    9.0797   -7.5969    0.0000 C   0  0
   10.1053   -8.1811    0.0000 C   0  0
   11.1220   -7.5916    0.0000 C   0  0
   11.1220   -6.4101    0.0000 C   0  0
   10.1028   -5.8204    0.0000 N   0  0
   12.1452   -8.1823    0.0000 C   0  0
   13.1683   -7.5916    0.0000 C   0  0
   13.1683   -6.4100    0.0000 C   0  0
   14.1893   -5.8220    0.0000 C   0  0
   15.2128   -6.4129    0.0000 C   0  0
   15.2128   -7.5885    0.0000 C   0  0
   14.1959   -8.1848    0.0000 C   0  0
   14.1959   -9.3663    0.0000 F   0  0
   16.2359   -5.8222    0.0000 Cl  0  0
   12.1452   -9.3638    0.0000 N   0  0
   13.1683   -9.9545    0.0000 C   0  0
   13.1683  -11.1359    0.0000 C   0  0
   12.1451  -11.7266    0.0000 N   0  0
   11.1220  -11.1359    0.0000 C   0  0
   11.1220   -9.9545    0.0000 C   0  0
   12.1451  -12.9081    0.0000 C   0  0
   13.1676  -13.4988    0.0000 C   0  0
   13.1676  -14.6766    0.0000 C   0  0
   12.1444  -15.2678    0.0000 C   0  0
   11.1178  -14.6824    0.0000 C   0  0
   11.1178  -13.5017    0.0000 C   0  0
   14.1908  -15.2673    0.0000 O   0  0
   15.2139  -14.6766    0.0000 C   0  0
  1  2  1  0
  2  3  2  0
  3  4  1  0
  4  5  2  0
  5  6  1  0
  6  1  2  0
  4  7  1  0
  7  8  1  0
  9  8  2  0
 10  9  1  0
 11 10  2  0
 12 11  1  0
 13 12  2  0
  8 13  1  0
 13 14  1  0
 11 15  1  0
  7 16  1  0
 17 16  1  0
 18 17  1  0
 19 18  1  0
 20 19  1  0
 21 20  1  0
 16 21  1  0
 19 22  1  0
 22 23  2  0
 24 23  1  0
 25 24  2  0
 26 25  1  0
 27 26  2  0
 22 27  1  0
 24 28  1  0
 28 29  1  0
M  END
> <Work Package>
B

> <Target ID>
P4_B_006

> <Smiles>

> <Status (Not started, Ongoing, Completed)>
Not Started

> <Target Proposed by>
DNDI

> <Synthesis by>

$$$$
Chemistry 0
  SciTegic02071916232D

 28 31  0  0  0  0            999 V2000
    9.0797   -6.3669    0.0000 C   0  0
    9.0797   -7.5531    0.0000 C   0  0
   10.1053   -8.1373    0.0000 C   0  0
   11.1220   -7.5478    0.0000 C   0  0
   11.1220   -6.3663    0.0000 C   0  0
   10.1028   -5.7766    0.0000 N   0  0
   12.1452   -8.1385    0.0000 C   0  0
   13.1683   -7.5478    0.0000 C   0  0
   13.1683   -6.3662    0.0000 C   0  0
   14.1893   -5.7782    0.0000 C   0  0
   15.2128   -6.3691    0.0000 C   0  0
   15.2128   -7.5447    0.0000 C   0  0
   14.1959   -8.1410    0.0000 C   0  0
   14.1959   -9.3225    0.0000 F   0  0
   16.2359   -5.7784    0.0000 Cl  0  0
   12.1452   -9.3200    0.0000 N   0  0
   13.1683   -9.9107    0.0000 C   0  0
   13.1683  -11.0921    0.0000 C   0  0
   12.1451  -11.6828    0.0000 N   0  0
   11.1220  -11.0921    0.0000 C   0  0
   11.1220   -9.9107    0.0000 C   0  0
   12.1451  -12.8643    0.0000 C   0  0
   13.1676  -13.4550    0.0000 C   0  0
   13.1676  -14.6328    0.0000 C   0  0
   12.1444  -15.2240    0.0000 C   0  0
   11.1178  -14.6386    0.0000 C   0  0
   11.1178  -13.4579    0.0000 C   0  0
   14.1908  -15.2235    0.0000 F   0  0
  1  2  1  0
  2  3  2  0
  3  4  1  0
  4  5  2  0
  5  6  1  0
  6  1  2  0
  4  7  1  0
  7  8  1  0
  9  8  2  0
 10  9  1  0
 11 10  2  0
 12 11  1  0
 13 12  2  0
  8 13  1  0
 13 14  1  0
 11 15  1  0
  7 16  1  0
 17 16  1  0
 18 17  1  0
 19 18  1  0
 20 19  1  0
 21 20  1  0
 16 21  1  0
 19 22  1  0
 22 23  2  0
 24 23  1  0
 25 24  2  0
 26 25  1  0
 27 26  2  0
 22 27  1  0
 24 28  1  0
M  END
> <Work Package>
B

> <Target ID>
P4_B_007

> <Smiles>

> <Status (Not started, Ongoing, Completed)>
Not Started

> <Target Proposed by>
DNDI

> <Synthesis by>

$$$$
Chemistry 0
  SciTegic02071916232D

 31 34  0  0  0  0            999 V2000
    9.0797   -6.3669    0.0000 C   0  0
    9.0797   -7.5531    0.0000 C   0  0
   10.1053   -8.1373    0.0000 C   0  0
   11.1220   -7.5478    0.0000 C   0  0
   11.1220   -6.3663    0.0000 C   0  0
   10.1028   -5.7766    0.0000 N   0  0
   12.1452   -8.1385    0.0000 C   0  0
   13.1683   -7.5478    0.0000 C   0  0
   13.1683   -6.3662    0.0000 C   0  0
   14.1893   -5.7782    0.0000 C   0  0
   15.2128   -6.3691    0.0000 C   0  0
   15.2128   -7.5447    0.0000 C   0  0
   14.1959   -8.1410    0.0000 C   0  0
   14.1959   -9.3225    0.0000 F   0  0
   16.2359   -5.7784    0.0000 Cl  0  0
   12.1452   -9.3200    0.0000 N   0  0
   13.1683   -9.9107    0.0000 C   0  0
   13.1683  -11.0920    0.0000 C   0  0
   12.1451  -11.6828    0.0000 N   0  0
   11.1220  -11.0920    0.0000 C   0  0
   11.1220   -9.9107    0.0000 C   0  0
   12.1451  -12.8643    0.0000 C   0  0
   13.1676  -13.4550    0.0000 C   0  0
   13.1676  -14.6328    0.0000 C   0  0
   12.1444  -15.2240    0.0000 C   0  0
   11.1178  -14.6386    0.0000 C   0  0
   11.1178  -13.4579    0.0000 C   0  0
   14.1908  -15.2235    0.0000 C   0  0
   15.1097  -15.7540    0.0000 F   0  0
   13.5891  -16.2656    0.0000 F   0  0
   14.7813  -14.2007    0.0000 F   0  0
  1  2  1  0
  2  3  2  0
  3  4  1  0
  4  5  2  0
  5  6  1  0
  6  1  2  0
  4  7  1  0
  7  8  1  0
  9  8  2  0
 10  9  1  0
 11 10  2  0
 12 11  1  0
 13 12  2  0
  8 13  1  0
 13 14  1  0
 11 15  1  0
  7 16  1  0
 17 16  1  0
 18 17  1  0
 19 18  1  0
 20 19  1  0
 21 20  1  0
 16 21  1  0
 19 22  1  0
 22 23  2  0
 24 23  1  0
 25 24  2  0
 26 25  1  0
 27 26  2  0
 22 27  1  0
 28 31  1  0
 28 30  1  0
 28 29  1  0
 24 28  1  0
M  STY  1   1 SUP
M  SLB  1   1   1
M  SAL   1  4  28  29  30  31
M  SBL   1  1  34
M  SMT   1 CF3
M  SBV   1  34   -1.0200    0.5900
M  END
> <Work Package>
B

> <Target ID>
P4_B_008

> <Smiles>

> <Status (Not started, Ongoing, Completed)>
Not Started

> <Target Proposed by>
DNDI

> <Synthesis by>

$$$$
Chemistry 0
  SciTegic02071916232D

 29 32  0  0  0  0            999 V2000
    9.0797   -6.3139    0.0000 C   0  0
    9.0797   -7.5001    0.0000 C   0  0
   10.1053   -8.0843    0.0000 C   0  0
   11.1220   -7.4948    0.0000 C   0  0
   11.1220   -6.3133    0.0000 C   0  0
   10.1028   -5.7236    0.0000 N   0  0
   12.1452   -8.0855    0.0000 C   0  0
   13.1683   -7.4948    0.0000 C   0  0
   13.1683   -6.3132    0.0000 C   0  0
   14.1893   -5.7252    0.0000 C   0  0
   15.2128   -6.3161    0.0000 C   0  0
   15.2128   -7.4917    0.0000 C   0  0
   14.1959   -8.0880    0.0000 C   0  0
   14.1959   -9.2695    0.0000 F   0  0
   16.2359   -5.7254    0.0000 Cl  0  0
   12.1452   -9.2670    0.0000 N   0  0
   13.1683   -9.8577    0.0000 C   0  0
   13.1683  -11.0390    0.0000 C   0  0
   12.1451  -11.6298    0.0000 N   0  0
   11.1220  -11.0390    0.0000 C   0  0
   11.1220   -9.8577    0.0000 C   0  0
   12.1451  -12.8113    0.0000 C   0  0
   13.1676  -13.4020    0.0000 C   0  0
   13.1676  -14.5798    0.0000 C   0  0
   12.1444  -15.1710    0.0000 C   0  0
   11.1178  -14.5856    0.0000 C   0  0
   11.1178  -13.4049    0.0000 C   0  0
   14.1908  -15.1706    0.0000 C   0  0
   15.2136  -15.7611    0.0000 N   0  0
  1  2  1  0
  2  3  2  0
  3  4  1  0
  4  5  2  0
  5  6  1  0
  6  1  2  0
  4  7  1  0
  7  8  1  0
  9  8  2  0
 10  9  1  0
 11 10  2  0
 12 11  1  0
 13 12  2  0
  8 13  1  0
 13 14  1  0
 11 15  1  0
  7 16  1  0
 17 16  1  0
 18 17  1  0
 19 18  1  0
 20 19  1  0
 21 20  1  0
 16 21  1  0
 19 22  1  0
 22 23  2  0
 24 23  1  0
 25 24  2  0
 26 25  1  0
 27 26  2  0
 22 27  1  0
 28 29  3  0
 24 28  1  0
M  STY  1   1 SUP
M  SLB  1   1   1
M  SAL   1  2  28  29
M  SBL   1  1  32
M  SMT   1 CN
M  SBV   1  32   -1.0200    0.5900
M  END
> <Work Package>
B

> <Target ID>
P4_B_009

> <Smiles>

> <Status (Not started, Ongoing, Completed)>
Not Started

> <Target Proposed by>
DNDI

> <Synthesis by>

$$$$
Chemistry 0
  SciTegic02071916232D

 28 31  0  0  0  0            999 V2000
    9.0797   -6.3438    0.0000 C   0  0
    9.0797   -7.5300    0.0000 C   0  0
   10.1053   -8.1142    0.0000 C   0  0
   11.1220   -7.5247    0.0000 C   0  0
   11.1220   -6.3432    0.0000 C   0  0
   10.1028   -5.7535    0.0000 N   0  0
   12.1452   -8.1154    0.0000 C   0  0
   13.1683   -7.5247    0.0000 C   0  0
   13.1683   -6.3431    0.0000 C   0  0
   14.1893   -5.7551    0.0000 C   0  0
   15.2128   -6.3460    0.0000 C   0  0
   15.2128   -7.5216    0.0000 C   0  0
   14.1959   -8.1179    0.0000 C   0  0
   14.1959   -9.2994    0.0000 F   0  0
   16.2359   -5.7553    0.0000 Cl  0  0
   12.1452   -9.2969    0.0000 N   0  0
   13.1683   -9.8876    0.0000 C   0  0
   13.1683  -11.0689    0.0000 C   0  0
   12.1451  -11.6597    0.0000 N   0  0
   11.1220  -11.0689    0.0000 C   0  0
   11.1220   -9.8876    0.0000 C   0  0
   12.1451  -12.8412    0.0000 C   0  0
   13.1676  -13.4319    0.0000 C   0  0
   13.1676  -14.6097    0.0000 C   0  0
   12.1444  -15.2009    0.0000 C   0  0
   11.1178  -14.6155    0.0000 C   0  0
   11.1178  -13.4348    0.0000 C   0  0
   12.1444  -16.3824    0.0000 F   0  0
  1  2  1  0
  2  3  2  0
  3  4  1  0
  4  5  2  0
  5  6  1  0
  6  1  2  0
  4  7  1  0
  7  8  1  0
  9  8  2  0
 10  9  1  0
 11 10  2  0
 12 11  1  0
 13 12  2  0
  8 13  1  0
 13 14  1  0
 11 15  1  0
  7 16  1  0
 17 16  1  0
 18 17  1  0
 19 18  1  0
 20 19  1  0
 21 20  1  0
 16 21  1  0
 19 22  1  0
 22 23  2  0
 24 23  1  0
 25 24  2  0
 26 25  1  0
 27 26  2  0
 22 27  1  0
 25 28  1  0
M  END
> <Work Package>
B

> <Target ID>
P4_B_010

> <Smiles>

> <Status (Not started, Ongoing, Completed)>
Not Started

> <Target Proposed by>
DNDI

> <Synthesis by>

$$$$
Chemistry 0
  SciTegic02071916232D

 31 34  0  0  0  0            999 V2000
    9.0797   -5.7759    0.0000 C   0  0
    9.0797   -6.9621    0.0000 C   0  0
   10.1053   -7.5463    0.0000 C   0  0
   11.1220   -6.9568    0.0000 C   0  0
   11.1220   -5.7753    0.0000 C   0  0
   10.1028   -5.1856    0.0000 N   0  0
   12.1452   -7.5475    0.0000 C   0  0
   13.1683   -6.9568    0.0000 C   0  0
   13.1683   -5.7752    0.0000 C   0  0
   14.1893   -5.1872    0.0000 C   0  0
   15.2128   -5.7781    0.0000 C   0  0
   15.2128   -6.9537    0.0000 C   0  0
   14.1959   -7.5500    0.0000 C   0  0
   14.1959   -8.7315    0.0000 F   0  0
   16.2359   -5.1874    0.0000 Cl  0  0
   12.1452   -8.7290    0.0000 N   0  0
   13.1683   -9.3197    0.0000 C   0  0
   13.1683  -10.5010    0.0000 C   0  0
   12.1451  -11.0918    0.0000 N   0  0
   11.1220  -10.5010    0.0000 C   0  0
   11.1220   -9.3197    0.0000 C   0  0
   12.1451  -12.2733    0.0000 C   0  0
   13.1676  -12.8640    0.0000 C   0  0
   13.1676  -14.0418    0.0000 C   0  0
   12.1444  -14.6330    0.0000 C   0  0
   11.1178  -14.0475    0.0000 C   0  0
   11.1178  -12.8669    0.0000 C   0  0
   12.1444  -15.8144    0.0000 C   0  0
   12.1444  -16.8755    0.0000 F   0  0
   10.9411  -15.8144    0.0000 F   0  0
   13.3254  -15.8144    0.0000 F   0  0
  1  2  1  0
  2  3  2  0
  3  4  1  0
  4  5  2  0
  5  6  1  0
  6  1  2  0
  4  7  1  0
  7  8  1  0
  9  8  2  0
 10  9  1  0
 11 10  2  0
 12 11  1  0
 13 12  2  0
  8 13  1  0
 13 14  1  0
 11 15  1  0
  7 16  1  0
 17 16  1  0
 18 17  1  0
 19 18  1  0
 20 19  1  0
 21 20  1  0
 16 21  1  0
 19 22  1  0
 22 23  2  0
 24 23  1  0
 25 24  2  0
 26 25  1  0
 27 26  2  0
 22 27  1  0
 28 31  1  0
 28 30  1  0
 28 29  1  0
 25 28  1  0
M  STY  1   1 SUP
M  SLB  1   1   1
M  SAL   1  4  28  29  30  31
M  SBL   1  1  34
M  SMT   1 CF3
M  SBV   1  34    0.0000    1.1800
M  END
> <Work Package>
B

> <Target ID>
P4_B_011

> <Smiles>

> <Status (Not started, Ongoing, Completed)>
Not Started

> <Target Proposed by>
DNDI

> <Synthesis by>

$$$$
Chemistry 0
  SciTegic02071916232D

 29 32  0  0  0  0            999 V2000
    9.0797   -5.7247    0.0000 C   0  0
    9.0797   -6.9109    0.0000 C   0  0
   10.1053   -7.4951    0.0000 C   0  0
   11.1220   -6.9056    0.0000 C   0  0
   11.1220   -5.7241    0.0000 C   0  0
   10.1028   -5.1344    0.0000 N   0  0
   12.1452   -7.4963    0.0000 C   0  0
   13.1683   -6.9056    0.0000 C   0  0
   13.1683   -5.7240    0.0000 C   0  0
   14.1893   -5.1360    0.0000 C   0  0
   15.2128   -5.7269    0.0000 C   0  0
   15.2128   -6.9025    0.0000 C   0  0
   14.1959   -7.4988    0.0000 C   0  0
   14.1959   -8.6803    0.0000 F   0  0
   16.2359   -5.1362    0.0000 Cl  0  0
   12.1452   -8.6778    0.0000 N   0  0
   13.1683   -9.2685    0.0000 C   0  0
   13.1683  -10.4498    0.0000 C   0  0
   12.1451  -11.0406    0.0000 N   0  0
   11.1220  -10.4498    0.0000 C   0  0
   11.1220   -9.2685    0.0000 C   0  0
   12.1451  -12.2221    0.0000 C   0  0
   13.1676  -12.8128    0.0000 C   0  0
   13.1676  -13.9906    0.0000 C   0  0
   12.1444  -14.5818    0.0000 C   0  0
   11.1178  -13.9963    0.0000 C   0  0
   11.1178  -12.8157    0.0000 C   0  0
   12.1444  -15.7632    0.0000 C   0  0
   12.1444  -16.9443    0.0000 N   0  0
  1  2  1  0
  2  3  2  0
  3  4  1  0
  4  5  2  0
  5  6  1  0
  6  1  2  0
  4  7  1  0
  7  8  1  0
  9  8  2  0
 10  9  1  0
 11 10  2  0
 12 11  1  0
 13 12  2  0
  8 13  1  0
 13 14  1  0
 11 15  1  0
  7 16  1  0
 17 16  1  0
 18 17  1  0
 19 18  1  0
 20 19  1  0
 21 20  1  0
 16 21  1  0
 19 22  1  0
 22 23  2  0
 24 23  1  0
 25 24  2  0
 26 25  1  0
 27 26  2  0
 22 27  1  0
 28 29  3  0
 25 28  1  0
M  STY  1   1 SUP
M  SLB  1   1   1
M  SAL   1  2  28  29
M  SBL   1  1  32
M  SMT   1 CN
M  SBV   1  32    0.0000    1.1800
M  END
> <Work Package>
B

> <Target ID>
P4_B_012

> <Smiles>

> <Status (Not started, Ongoing, Completed)>
Not Started

> <Target Proposed by>
DNDI

> <Synthesis by>

$$$$
Chemistry 0
  SciTegic02071916232D

 29 32  0  0  0  0            999 V2000
    9.0797   -5.7534    0.0000 C   0  0
    9.0797   -6.9396    0.0000 C   0  0
   10.1053   -7.5238    0.0000 C   0  0
   11.1220   -6.9343    0.0000 C   0  0
   11.1220   -5.7528    0.0000 C   0  0
   10.1028   -5.1631    0.0000 N   0  0
   12.1452   -7.5250    0.0000 C   0  0
   13.1683   -6.9343    0.0000 C   0  0
   13.1683   -5.7527    0.0000 C   0  0
   14.1893   -5.1647    0.0000 C   0  0
   15.2128   -5.7556    0.0000 C   0  0
   15.2128   -6.9312    0.0000 C   0  0
   14.1959   -7.5275    0.0000 C   0  0
   14.1959   -8.7090    0.0000 F   0  0
   16.2359   -5.1649    0.0000 Cl  0  0
   12.1452   -8.7065    0.0000 N   0  0
   13.1683   -9.2972    0.0000 C   0  0
   13.1683  -10.4785    0.0000 C   0  0
   12.1451  -11.0693    0.0000 N   0  0
   11.1220  -10.4785    0.0000 C   0  0
   11.1220   -9.2972    0.0000 C   0  0
   12.1451  -12.2508    0.0000 C   0  0
   13.1676  -12.8415    0.0000 C   0  0
   13.1676  -14.0193    0.0000 C   0  0
   12.1444  -14.6105    0.0000 C   0  0
   11.1178  -14.0250    0.0000 C   0  0
   11.1178  -12.8444    0.0000 C   0  0
   12.1444  -15.7920    0.0000 O   0  0
   13.1676  -16.3827    0.0000 C   0  0
  1  2  1  0
  2  3  2  0
  3  4  1  0
  4  5  2  0
  5  6  1  0
  6  1  2  0
  4  7  1  0
  7  8  1  0
  9  8  2  0
 10  9  1  0
 11 10  2  0
 12 11  1  0
 13 12  2  0
  8 13  1  0
 13 14  1  0
 11 15  1  0
  7 16  1  0
 17 16  1  0
 18 17  1  0
 19 18  1  0
 20 19  1  0
 21 20  1  0
 16 21  1  0
 19 22  1  0
 22 23  2  0
 24 23  1  0
 25 24  2  0
 26 25  1  0
 27 26  2  0
 22 27  1  0
 25 28  1  0
 28 29  1  0
M  END
> <Work Package>
B

> <Target ID>
P4_B_013

> <Smiles>

> <Status (Not started, Ongoing, Completed)>
Not Started

> <Target Proposed by>
DNDI

> <Synthesis by>

$$$$
Chemistry 0
  SciTegic02071916232D

 26 29  0  0  0  0            999 V2000
    9.0797   -6.6604    0.0000 C   0  0
    9.0797   -7.8466    0.0000 C   0  0
   10.1053   -8.4308    0.0000 C   0  0
   11.1220   -7.8413    0.0000 C   0  0
   11.1220   -6.6598    0.0000 C   0  0
   10.1028   -6.0701    0.0000 N   0  0
   12.1452   -8.4320    0.0000 C   0  0
   13.1683   -7.8413    0.0000 C   0  0
   13.1683   -6.6597    0.0000 C   0  0
   14.1893   -6.0717    0.0000 C   0  0
   15.2128   -6.6626    0.0000 C   0  0
   15.2128   -7.8382    0.0000 C   0  0
   14.1959   -8.4345    0.0000 C   0  0
   14.1959   -9.6160    0.0000 F   0  0
   16.2359   -6.0719    0.0000 Cl  0  0
   12.1452   -9.6135    0.0000 N   0  0
   13.1683  -10.2042    0.0000 C   0  0
   13.1683  -11.3856    0.0000 C   0  0
   12.1451  -11.9763    0.0000 N   0  0
   11.1220  -11.3856    0.0000 C   0  0
   11.1220  -10.2042    0.0000 C   0  0
   12.1451  -13.1578    0.0000 C   0  0
   13.1004  -13.8519    0.0000 N   0  0
   12.7355  -14.9750    0.0000 C   0  0
   11.5547  -14.9750    0.0000 C   0  0
   11.1898  -13.8519    0.0000 O   0  0
  1  2  1  0
  2  3  2  0
  3  4  1  0
  4  5  2  0
  5  6  1  0
  6  1  2  0
  4  7  1  0
  7  8  1  0
  9  8  2  0
 10  9  1  0
 11 10  2  0
 12 11  1  0
 13 12  2  0
  8 13  1  0
 13 14  1  0
 11 15  1  0
  7 16  1  0
 17 16  1  0
 18 17  1  0
 19 18  1  0
 20 19  1  0
 21 20  1  0
 16 21  1  0
 19 22  1  0
 25 26  1  0
 24 25  2  0
 23 24  1  0
 23 22  2  0
 26 22  1  0
M  END
> <Work Package>
B

> <Target ID>
P4_B_014

> <Smiles>

> <Status (Not started, Ongoing, Completed)>
Not Started

> <Target Proposed by>
DNDI

> <Synthesis by>

$$$$
Chemistry 0
  SciTegic02071916232D

 27 30  0  0  0  0            999 V2000
    9.0797   -6.6638    0.0000 C   0  0
    9.0797   -7.8500    0.0000 C   0  0
   10.1053   -8.4342    0.0000 C   0  0
   11.1220   -7.8447    0.0000 C   0  0
   11.1220   -6.6632    0.0000 C   0  0
   10.1028   -6.0735    0.0000 N   0  0
   12.1452   -8.4354    0.0000 C   0  0
   13.1683   -7.8447    0.0000 C   0  0
   13.1683   -6.6631    0.0000 C   0  0
   14.1893   -6.0751    0.0000 C   0  0
   15.2128   -6.6660    0.0000 C   0  0
   15.2128   -7.8416    0.0000 C   0  0
   14.1959   -8.4379    0.0000 C   0  0
   14.1959   -9.6194    0.0000 F   0  0
   16.2359   -6.0753    0.0000 Cl  0  0
   12.1452   -9.6169    0.0000 N   0  0
   13.1683  -10.2076    0.0000 C   0  0
   13.1683  -11.3890    0.0000 C   0  0
   12.1451  -11.9797    0.0000 N   0  0
   11.1220  -11.3890    0.0000 C   0  0
   11.1220  -10.2076    0.0000 C   0  0
   12.1451  -13.1612    0.0000 C   0  0
   13.1671  -14.9302    0.0000 N   0  0
   13.1682  -13.7523    0.0000 C   0  0
   12.1436  -15.5211    0.0000 C   0  0
   11.1175  -13.7545    0.0000 C   0  0
   11.1244  -14.9352    0.0000 C   0  0
  1  2  1  0
  2  3  2  0
  3  4  1  0
  4  5  2  0
  5  6  1  0
  6  1  2  0
  4  7  1  0
  7  8  1  0
  9  8  2  0
 10  9  1  0
 11 10  2  0
 12 11  1  0
 13 12  2  0
  8 13  1  0
 13 14  1  0
 11 15  1  0
  7 16  1  0
 17 16  1  0
 18 17  1  0
 19 18  1  0
 20 19  1  0
 21 20  1  0
 16 21  1  0
 19 22  1  0
 27 25  1  0
 26 27  2  0
 23 24  1  0
 25 23  2  0
 24 22  2  0
 22 26  1  0
M  END
> <Work Package>
B

> <Target ID>
P4_B_015

> <Smiles>

> <Status (Not started, Ongoing, Completed)>
Not Started

> <Target Proposed by>
DNDI

> <Synthesis by>

$$$$
Chemistry 0
  SciTegic02071916232D

 21 23  0  0  0  0            999 V2000
    9.0797   -6.4107    0.0000 C   0  0
    9.0797   -7.5969    0.0000 C   0  0
   10.1053   -8.1811    0.0000 C   0  0
   11.1220   -7.5916    0.0000 C   0  0
   11.1220   -6.4101    0.0000 C   0  0
   10.1028   -5.8204    0.0000 N   0  0
   12.1452   -8.1823    0.0000 C   0  0
   13.1683   -7.5916    0.0000 C   0  0
   13.1683   -6.4100    0.0000 C   0  0
   14.1893   -5.8220    0.0000 C   0  0
   15.2128   -6.4129    0.0000 C   0  0
   15.2128   -7.5885    0.0000 C   0  0
   14.1959   -8.1848    0.0000 C   0  0
   14.1959   -9.3663    0.0000 F   0  0
   16.2359   -5.8222    0.0000 Cl  0  0
   12.1452   -9.3638    0.0000 N   0  0
   13.1683   -9.9545    0.0000 C   0  0
   13.1683  -11.1359    0.0000 C   0  0
   12.1451  -11.7266    0.0000 O   0  0
   11.1220  -11.1359    0.0000 C   0  0
   11.1220   -9.9545    0.0000 C   0  0
  1  2  1  0
  2  3  2  0
  3  4  1  0
  4  5  2  0
  5  6  1  0
  6  1  2  0
  4  7  1  0
  7  8  1  0
  9  8  2  0
 10  9  1  0
 11 10  2  0
 12 11  1  0
 13 12  2  0
  8 13  1  0
 13 14  1  0
 11 15  1  0
  7 16  1  0
 17 16  1  0
 18 17  1  0
 19 18  1  0
 20 19  1  0
 21 20  1  0
 16 21  1  0
M  END
> <Work Package>
C

> <Target ID>
P4_C_001

> <Smiles>

> <Status (Not started, Ongoing, Completed)>
Not Started

> <Target Proposed by>
DNDI

> <Synthesis by>

$$$$
Chemistry 0
  SciTegic02071916232D

 23 25  0  0  0  0            999 V2000
    9.0797  -12.6372    0.0000 C   0  0
    9.0797  -13.8234    0.0000 C   0  0
   10.1053  -14.4076    0.0000 C   0  0
   11.1220  -13.8181    0.0000 C   0  0
   11.1220  -12.6366    0.0000 C   0  0
   10.1028  -12.0469    0.0000 N   0  0
   12.1452  -14.4088    0.0000 C   0  0
   13.1683  -13.8181    0.0000 C   0  0
   13.1683  -12.6365    0.0000 C   0  0
   14.1893  -12.0485    0.0000 C   0  0
   15.2128  -12.6394    0.0000 C   0  0
   15.2128  -13.8150    0.0000 C   0  0
   14.1959  -14.4113    0.0000 C   0  0
   14.1959  -15.5928    0.0000 F   0  0
   16.2359  -12.0487    0.0000 Cl  0  0
   12.1452  -15.5903    0.0000 N   0  0
   13.1683  -16.1810    0.0000 C   0  0
   13.1683  -17.3624    0.0000 C   0  0
   12.1451  -17.9531    0.0000 C   0  0
   11.1220  -17.3624    0.0000 C   0  0
   11.1220  -16.1810    0.0000 C   0  0
   12.1451  -19.1346    0.0000 F   0  0
   11.1500  -18.6000    0.0000 F   0  0
  1  2  1  0
  2  3  2  0
  3  4  1  0
  4  5  2  0
  5  6  1  0
  6  1  2  0
  4  7  1  0
  7  8  1  0
  9  8  2  0
 10  9  1  0
 11 10  2  0
 12 11  1  0
 13 12  2  0
  8 13  1  0
 13 14  1  0
 11 15  1  0
  7 16  1  0
 17 16  1  0
 18 17  1  0
 19 18  1  0
 20 19  1  0
 21 20  1  0
 16 21  1  0
 19 22  1  0
 19 23  1  0
M  END
> <Work Package>
C

> <Target ID>
P4_C_002

> <Smiles>

> <Status (Not started, Ongoing, Completed)>
Not Started

> <Target Proposed by>
DNDI

> <Synthesis by>

$$$$
Chemistry 0
  SciTegic02071916232D

 21 23  0  0  0  0            999 V2000
    9.0797  -12.6372    0.0000 C   0  0
    9.0797  -13.8234    0.0000 C   0  0
   10.1053  -14.4076    0.0000 C   0  0
   11.1220  -13.8181    0.0000 C   0  0
   11.1220  -12.6366    0.0000 C   0  0
   10.1028  -12.0469    0.0000 N   0  0
   12.1452  -14.4088    0.0000 C   0  0
   13.1683  -13.8181    0.0000 C   0  0
   13.1683  -12.6365    0.0000 C   0  0
   14.1893  -12.0485    0.0000 C   0  0
   15.2128  -12.6394    0.0000 C   0  0
   15.2128  -13.8150    0.0000 C   0  0
   14.1959  -14.4113    0.0000 C   0  0
   14.1959  -15.5928    0.0000 F   0  0
   16.2359  -12.0487    0.0000 Cl  0  0
   12.1452  -15.5903    0.0000 N   0  0
   13.1683  -16.1810    0.0000 C   0  0
   13.1683  -17.3624    0.0000 C   0  0
   12.1451  -17.9531    0.0000 C   0  0
   11.1220  -17.3624    0.0000 C   0  0
   11.1220  -16.1810    0.0000 C   0  0
  1  2  1  0
  2  3  2  0
  3  4  1  0
  4  5  2  0
  5  6  1  0
  6  1  2  0
  4  7  1  0
  7  8  1  0
  9  8  2  0
 10  9  1  0
 11 10  2  0
 12 11  1  0
 13 12  2  0
  8 13  1  0
 13 14  1  0
 11 15  1  0
  7 16  1  0
 17 16  1  0
 18 17  1  0
 19 18  1  0
 20 19  1  0
 21 20  1  0
 16 21  1  0
M  END
> <Work Package>
C

> <Target ID>
P4_C_003

> <Smiles>

> <Status (Not started, Ongoing, Completed)>
Not Started

> <Target Proposed by>
DNDI

> <Synthesis by>

$$$$
Chemistry 0
  SciTegic02071916232D

 28 31  0  0  0  0            999 V2000
    9.0797  -12.5052    0.0000 C   0  0
    9.0797  -13.6914    0.0000 C   0  0
   10.1053  -14.2756    0.0000 C   0  0
   11.1220  -13.6861    0.0000 C   0  0
   11.1220  -12.5046    0.0000 C   0  0
   10.1028  -11.9149    0.0000 N   0  0
   12.1452  -14.2768    0.0000 C   0  0
   13.1683  -13.6861    0.0000 C   0  0
   13.1683  -12.5045    0.0000 C   0  0
   14.1893  -11.9165    0.0000 C   0  0
   15.2128  -12.5074    0.0000 C   0  0
   15.2128  -13.6830    0.0000 C   0  0
   14.1959  -14.2793    0.0000 C   0  0
   14.1959  -15.4608    0.0000 F   0  0
   16.2359  -11.9167    0.0000 Cl  0  0
   12.1452  -15.4583    0.0000 N   0  0
   11.1371  -16.0766    0.0000 C   0  0
   10.9930  -17.2498    0.0000 C   0  0
   11.8284  -18.0852    0.0000 N   0  0
   12.9951  -17.9749    0.0000 C   0  0
   13.6281  -16.9812    0.0000 C   0  0
   13.2486  -15.8610    0.0000 C   0  0
   11.5226  -19.2263    0.0000 C   0  0
   12.0519  -21.1995    0.0000 C   0  0
   12.3579  -20.0621    0.0000 C   0  0
   10.9104  -21.5054    0.0000 C   0  0
   10.3765  -19.5334    0.0000 C   0  0
   10.0775  -20.6757    0.0000 C   0  0
  1  2  1  0
  2  3  2  0
  3  4  1  0
  4  5  2  0
  5  6  1  0
  6  1  2  0
  4  7  1  0
  7  8  1  0
  9  8  2  0
 10  9  1  0
 11 10  2  0
 12 11  1  0
 13 12  2  0
  8 13  1  0
 13 14  1  0
 11 15  1  0
  7 16  1  0
 17 16  1  0
 17 18  1  0
 18 19  1  0
 20 19  1  0
 21 20  1  0
 22 21  1  0
 16 22  1  0
 19 23  1  0
 28 26  1  0
 27 28  2  0
 24 25  1  0
 26 24  2  0
 25 23  2  0
 23 27  1  0
M  END
> <Work Package>
C

> <Target ID>
P4_C_004

> <Smiles>

> <Status (Not started, Ongoing, Completed)>
Not Started

> <Target Proposed by>
DNDI

> <Synthesis by>

$$$$
Chemistry 0
  SciTegic02071916232D

 27 29  0  0  0  0            999 V2000
    9.0797  -10.8255    0.0000 C   0  0
    9.0797  -12.0117    0.0000 C   0  0
   10.1053  -12.5959    0.0000 C   0  0
   11.1220  -12.0064    0.0000 C   0  0
   11.1220  -10.8249    0.0000 C   0  0
   10.1028  -10.2352    0.0000 N   0  0
   12.1452  -12.5971    0.0000 C   0  0
   13.1683  -12.0064    0.0000 C   0  0
   13.1683  -10.8248    0.0000 C   0  0
   14.1893  -10.2368    0.0000 C   0  0
   15.2128  -10.8277    0.0000 C   0  0
   15.2128  -12.0033    0.0000 C   0  0
   14.1959  -12.5996    0.0000 C   0  0
   14.1959  -13.7811    0.0000 F   0  0
   16.2359  -10.2370    0.0000 Cl  0  0
   12.1452  -13.7786    0.0000 N   0  0
   11.1371  -14.3969    0.0000 C   0  0
   10.9930  -15.5701    0.0000 C   0  0
   11.8284  -16.4055    0.0000 N   0  0
   12.9951  -16.2952    0.0000 C   0  0
   13.6281  -15.3015    0.0000 C   0  0
   13.2486  -14.1813    0.0000 C   0  0
   11.5226  -17.5467    0.0000 C   0  0
   12.3580  -18.3821    0.0000 O   0  0
   10.3814  -17.8525    0.0000 O   0  0
   13.4992  -18.0763    0.0000 C   0  0
   14.3347  -18.9118    0.0000 C   0  0
  1  2  1  0
  2  3  2  0
  3  4  1  0
  4  5  2  0
  5  6  1  0
  6  1  2  0
  4  7  1  0
  7  8  1  0
  9  8  2  0
 10  9  1  0
 11 10  2  0
 12 11  1  0
 13 12  2  0
  8 13  1  0
 13 14  1  0
 11 15  1  0
  7 16  1  0
 17 16  1  0
 17 18  1  0
 18 19  1  0
 20 19  1  0
 21 20  1  0
 22 21  1  0
 16 22  1  0
 19 23  1  0
 23 24  1  0
 23 25  2  0
 24 26  1  0
 26 27  1  0
M  END
> <Work Package>
C

> <Target ID>
P4_C_005

> <Smiles>

> <Status (Not started, Ongoing, Completed)>
Not Started

> <Target Proposed by>
DNDI

> <Synthesis by>

$$$$
Chemistry 0
  SciTegic02071916232D

 24 27  0  0  0  0            999 V2000
    9.0797  -11.3061    0.0000 C   0  0
    9.0797  -12.4923    0.0000 C   0  0
   10.1053  -13.0765    0.0000 C   0  0
   11.1220  -12.4870    0.0000 C   0  0
   11.1220  -11.3055    0.0000 C   0  0
   10.1028  -10.7158    0.0000 N   0  0
   12.1452  -13.0777    0.0000 C   0  0
   13.1683  -12.4870    0.0000 C   0  0
   13.1683  -11.3054    0.0000 C   0  0
   14.1893  -10.7174    0.0000 C   0  0
   15.2128  -11.3083    0.0000 C   0  0
   15.2128  -12.4839    0.0000 C   0  0
   14.1959  -13.0802    0.0000 C   0  0
   14.1959  -14.2617    0.0000 F   0  0
   16.2359  -10.7176    0.0000 Cl  0  0
   12.1452  -14.2592    0.0000 N   0  0
   11.1371  -14.8775    0.0000 C   0  0
   11.1685  -16.0597    0.0000 C   0  0
   12.2080  -16.6236    0.0000 N   0  0
   13.2161  -16.0053    0.0000 C   0  0
   13.1847  -14.8231    0.0000 C   0  0
   12.4845  -17.7733    0.0000 C   0  0
   14.1156  -16.7730    0.0000 C   0  0
   13.6634  -17.8657    0.0000 C   0  0
  1  2  1  0
  2  3  2  0
  3  4  1  0
  4  5  2  0
  5  6  1  0
  6  1  2  0
  4  7  1  0
  7  8  1  0
  9  8  2  0
 10  9  1  0
 11 10  2  0
 12 11  1  0
 13 12  2  0
  8 13  1  0
 13 14  1  0
 11 15  1  0
  7 16  1  0
 17 16  1  0
 20 21  1  0
 19 20  1  0
 18 19  1  0
 17 18  1  0
 16 21  1  0
 24 22  1  0
 23 24  1  0
 19 22  1  0
 20 23  1  0
M  END
> <Work Package>
C

> <Target ID>
P4_C_006

> <Smiles>

> <Status (Not started, Ongoing, Completed)>
Not Started

> <Target Proposed by>
Mycetos Github

> <Synthesis by>

$$$$
Chemistry 0
  SciTegic02071916232D

 24 27  0  0  0  0            999 V2000
    9.0797  -12.0694    0.0000 C   0  0
    9.0797  -13.2556    0.0000 C   0  0
   10.1053  -13.8398    0.0000 C   0  0
   11.1220  -13.2503    0.0000 C   0  0
   11.1220  -12.0688    0.0000 C   0  0
   10.1028  -11.4791    0.0000 N   0  0
   12.1452  -13.8410    0.0000 C   0  0
   13.1683  -13.2503    0.0000 C   0  0
   13.1683  -12.0687    0.0000 C   0  0
   14.1893  -11.4807    0.0000 C   0  0
   15.2128  -12.0716    0.0000 C   0  0
   15.2128  -13.2472    0.0000 C   0  0
   14.1959  -13.8435    0.0000 C   0  0
   14.1959  -15.0250    0.0000 F   0  0
   16.2359  -11.4809    0.0000 Cl  0  0
   12.1452  -15.0225    0.0000 N   0  0
   11.1371  -15.6408    0.0000 C   0  0
   11.1371  -16.8230    0.0000 C   0  0
   12.2080  -17.3869    0.0000 N   0  0
   13.2161  -16.7686    0.0000 C   0  0
   13.2161  -15.5864    0.0000 C   0  0
   14.1156  -17.5363    0.0000 C   0  0
   13.6634  -18.6290    0.0000 N   0  0
   12.4845  -18.5366    0.0000 C   0  0
  1  2  1  0
  2  3  2  0
  3  4  1  0
  4  5  2  0
  5  6  1  0
  6  1  2  0
  4  7  1  0
  7  8  1  0
  9  8  2  0
 10  9  1  0
 11 10  2  0
 12 11  1  0
 13 12  2  0
  8 13  1  0
 13 14  1  0
 11 15  1  0
  7 16  1  0
 17 16  1  0
 17 18  1  0
 18 19  1  0
 19 20  1  0
 20 21  1  0
 16 21  1  0
 20 22  2  0
 22 23  1  0
 23 24  2  0
 19 24  1  0
M  END
> <Work Package>
C

> <Target ID>
P4_C_007

> <Smiles>

> <Status (Not started, Ongoing, Completed)>
Not Started

> <Target Proposed by>
Mycetos Github

> <Synthesis by>

$$$$
Chemistry 0
  SciTegic02071916232D

 22 24  0  0  0  0            999 V2000
    9.0797  -12.0153    0.0000 C   0  0
    9.0797  -13.2015    0.0000 C   0  0
   10.1053  -13.7858    0.0000 C   0  0
   11.1220  -13.1963    0.0000 C   0  0
   11.1220  -12.0148    0.0000 C   0  0
   10.1028  -11.4251    0.0000 N   0  0
   12.1452  -13.7870    0.0000 C   0  0
   13.1683  -13.1963    0.0000 C   0  0
   13.1683  -12.0147    0.0000 C   0  0
   14.1893  -11.4267    0.0000 C   0  0
   15.2128  -12.0176    0.0000 C   0  0
   15.2128  -13.1932    0.0000 C   0  0
   14.1959  -13.7895    0.0000 C   0  0
   14.1959  -14.9710    0.0000 F   0  0
   16.2359  -11.4268    0.0000 Cl  0  0
   12.1452  -14.9685    0.0000 N   0  0
   11.1371  -15.5868    0.0000 C   0  0
   11.1371  -16.7690    0.0000 C   0  0
   12.2080  -17.3329    0.0000 C   0  0
   13.2161  -16.7146    0.0000 C   0  0
   13.2161  -15.5324    0.0000 C   0  0
   12.2080  -18.5143    0.0000 O   0  0
  1  2  1  0
  2  3  2  0
  3  4  1  0
  4  5  2  0
  5  6  1  0
  6  1  2  0
  4  7  1  0
  7  8  1  0
  9  8  2  0
 10  9  1  0
 11 10  2  0
 12 11  1  0
 13 12  2  0
  8 13  1  0
 13 14  1  0
 11 15  1  0
  7 16  1  0
 17 16  1  0
 17 18  1  0
 18 19  1  0
 19 20  1  0
 20 21  1  0
 16 21  1  0
 19 22  2  0
M  END
> <Work Package>
C

> <Target ID>
P4_C_008

> <Smiles>

> <Status (Not started, Ongoing, Completed)>
Not Started

> <Target Proposed by>
Mycetos Github

> <Synthesis by>

$$$$
Chemistry 0
  SciTegic02071916232D

 22 24  0  0  0  0            999 V2000
    9.0797  -12.0456    0.0000 C   0  0
    9.0797  -13.2318    0.0000 C   0  0
   10.1053  -13.8161    0.0000 C   0  0
   11.1220  -13.2266    0.0000 C   0  0
   11.1220  -12.0451    0.0000 C   0  0
   10.1028  -11.4554    0.0000 N   0  0
   12.1452  -13.8173    0.0000 C   0  0
   13.1683  -13.2266    0.0000 C   0  0
   13.1683  -12.0450    0.0000 C   0  0
   14.1893  -11.4570    0.0000 C   0  0
   15.2128  -12.0479    0.0000 C   0  0
   15.2128  -13.2235    0.0000 C   0  0
   14.1959  -13.8198    0.0000 C   0  0
   14.1959  -15.0013    0.0000 F   0  0
   16.2359  -11.4571    0.0000 Cl  0  0
   12.1452  -14.9988    0.0000 N   0  0
   11.1371  -15.6171    0.0000 C   0  0
   11.1371  -16.7993    0.0000 C   0  0
   12.2080  -17.3632    0.0000 C   0  0
   13.2161  -16.7449    0.0000 C   0  0
   13.2161  -15.5627    0.0000 C   0  0
   12.2080  -18.5446    0.0000 O   0  0
  1  2  1  0
  2  3  2  0
  3  4  1  0
  4  5  2  0
  5  6  1  0
  6  1  2  0
  4  7  1  0
  7  8  1  0
  9  8  2  0
 10  9  1  0
 11 10  2  0
 12 11  1  0
 13 12  2  0
  8 13  1  0
 13 14  1  0
 11 15  1  0
  7 16  1  0
 17 16  1  0
 17 18  1  0
 18 19  1  0
 19 20  1  0
 20 21  1  0
 16 21  1  0
 19 22  1  0
M  END
> <Work Package>
C

> <Target ID>
P4_C_009

> <Smiles>

> <Status (Not started, Ongoing, Completed)>
Not Started

> <Target Proposed by>
Mycetos Github

> <Synthesis by>

$$$$
Chemistry 0
  SciTegic02071916232D

 23 25  0  0  0  0            999 V2000
    9.0797  -12.0456    0.0000 C   0  0
    9.0797  -13.2318    0.0000 C   0  0
   10.1053  -13.8161    0.0000 C   0  0
   11.1220  -13.2266    0.0000 C   0  0
   11.1220  -12.0451    0.0000 C   0  0
   10.1028  -11.4554    0.0000 N   0  0
   12.1452  -13.8173    0.0000 C   0  0
   13.1683  -13.2266    0.0000 C   0  0
   13.1683  -12.0450    0.0000 C   0  0
   14.1893  -11.4570    0.0000 C   0  0
   15.2128  -12.0479    0.0000 C   0  0
   15.2128  -13.2235    0.0000 C   0  0
   14.1959  -13.8198    0.0000 C   0  0
   14.1959  -15.0013    0.0000 F   0  0
   16.2359  -11.4571    0.0000 Cl  0  0
   12.1452  -14.9988    0.0000 N   0  0
   11.1371  -15.6171    0.0000 C   0  0
   11.1371  -16.7993    0.0000 C   0  0
   12.2080  -17.3632    0.0000 C   0  0
   13.2161  -16.7449    0.0000 C   0  0
   13.2161  -15.5627    0.0000 C   0  0
   12.2080  -18.5446    0.0000 O   0  0
   13.2312  -19.1353    0.0000 C   0  0
  1  2  1  0
  2  3  2  0
  3  4  1  0
  4  5  2  0
  5  6  1  0
  6  1  2  0
  4  7  1  0
  7  8  1  0
  9  8  2  0
 10  9  1  0
 11 10  2  0
 12 11  1  0
 13 12  2  0
  8 13  1  0
 13 14  1  0
 11 15  1  0
  7 16  1  0
 17 16  1  0
 17 18  1  0
 18 19  1  0
 19 20  1  0
 20 21  1  0
 16 21  1  0
 19 22  1  0
 22 23  1  0
M  END
> <Work Package>
C

> <Target ID>
P4_C_010

> <Smiles>

> <Status (Not started, Ongoing, Completed)>
Not Started

> <Target Proposed by>
Mycetos Github

> <Synthesis by>

$$$$
Chemistry 0
  SciTegic02071916232D

 23 25  0  0  0  0            999 V2000
    9.0797  -11.8043    0.0000 C   0  0
    9.0797  -12.9905    0.0000 C   0  0
   10.1053  -13.5748    0.0000 C   0  0
   11.1220  -12.9853    0.0000 C   0  0
   11.1220  -11.8038    0.0000 C   0  0
   10.1028  -11.2141    0.0000 N   0  0
   12.1452  -13.5760    0.0000 C   0  0
   13.1683  -12.9853    0.0000 C   0  0
   13.1683  -11.8037    0.0000 C   0  0
   14.1893  -11.2157    0.0000 C   0  0
   15.2128  -11.8066    0.0000 C   0  0
   15.2128  -12.9822    0.0000 C   0  0
   14.1959  -13.5785    0.0000 C   0  0
   14.1959  -14.7600    0.0000 F   0  0
   16.2359  -11.2158    0.0000 Cl  0  0
   12.1452  -14.7575    0.0000 N   0  0
   11.1371  -15.3758    0.0000 C   0  0
   11.1371  -16.5580    0.0000 C   0  0
   12.2080  -17.1219    0.0000 C   0  0
   13.2161  -16.5036    0.0000 C   0  0
   13.2161  -15.3214    0.0000 C   0  0
   12.2080  -18.3033    0.0000 O   0  0
   13.2389  -17.6990    0.0000 C   0  0
  1  2  1  0
  2  3  2  0
  3  4  1  0
  4  5  2  0
  5  6  1  0
  6  1  2  0
  4  7  1  0
  7  8  1  0
  9  8  2  0
 10  9  1  0
 11 10  2  0
 12 11  1  0
 13 12  2  0
  8 13  1  0
 13 14  1  0
 11 15  1  0
  7 16  1  0
 17 16  1  0
 17 18  1  0
 18 19  1  0
 19 20  1  0
 20 21  1  0
 16 21  1  0
 19 22  1  0
 19 23  1  0
M  END
> <Work Package>
C

> <Target ID>
P4_C_011

> <Smiles>

> <Status (Not started, Ongoing, Completed)>
Not Started

> <Target Proposed by>
Mycetos Github

> <Synthesis by>

$$$$
Chemistry 0
  SciTegic02071916232D

 20 22  0  0  0  0            999 V2000
    9.0797  -12.0456    0.0000 C   0  0
    9.0797  -13.2318    0.0000 C   0  0
   10.1053  -13.8161    0.0000 C   0  0
   11.1220  -13.2266    0.0000 C   0  0
   11.1220  -12.0451    0.0000 C   0  0
   10.1028  -11.4554    0.0000 N   0  0
   12.1452  -13.8173    0.0000 C   0  0
   13.1683  -13.2266    0.0000 C   0  0
   13.1683  -12.0450    0.0000 C   0  0
   14.1893  -11.4570    0.0000 C   0  0
   15.2128  -12.0479    0.0000 C   0  0
   15.2128  -13.2235    0.0000 C   0  0
   14.1959  -13.8198    0.0000 C   0  0
   14.1959  -15.0013    0.0000 F   0  0
   16.2359  -11.4571    0.0000 Cl  0  0
   12.1452  -14.9988    0.0000 N   0  0
   13.1005  -15.6929    0.0000 C   0  0
   12.7356  -16.8160    0.0000 N   0  0
   11.5548  -16.8160    0.0000 C   0  0
   11.1899  -15.6929    0.0000 N   0  0
  1  2  1  0
  2  3  2  0
  3  4  1  0
  4  5  2  0
  5  6  1  0
  6  1  2  0
  4  7  1  0
  7  8  1  0
  9  8  2  0
 10  9  1  0
 11 10  2  0
 12 11  1  0
 13 12  2  0
  8 13  1  0
 13 14  1  0
 11 15  1  0
  7 16  1  0
 19 20  2  0
 18 19  1  0
 17 18  2  0
 17 16  1  0
 20 16  1  0
M  END
> <Work Package>
C

> <Target ID>
P4_C_012

> <Smiles>

> <Status (Not started, Ongoing, Completed)>
Not Started

> <Target Proposed by>
Mycetos Github

> <Synthesis by>

$$$$
Chemistry 0
  SciTegic02071916232D

 27 30  0  0  0  0            999 V2000
    9.0797  -12.9099    0.0000 C   0  0
    9.0797  -14.0961    0.0000 C   0  0
   10.1053  -14.6804    0.0000 C   0  0
   11.1220  -14.0909    0.0000 C   0  0
   11.1220  -12.9094    0.0000 C   0  0
   10.1028  -12.3197    0.0000 N   0  0
   12.1452  -14.6816    0.0000 C   0  0
   13.1683  -14.0909    0.0000 C   0  0
   13.1683  -12.9093    0.0000 C   0  0
   14.1893  -12.3213    0.0000 C   0  0
   15.2128  -12.9122    0.0000 C   0  0
   15.2128  -14.0878    0.0000 C   0  0
   14.1959  -14.6841    0.0000 C   0  0
   14.1959  -15.8656    0.0000 F   0  0
   16.2359  -12.3214    0.0000 Cl  0  0
   12.1452  -15.8631    0.0000 N   0  0
   13.1005  -16.5572    0.0000 C   0  0
   12.7356  -17.6803    0.0000 C   0  0
   11.5548  -17.6803    0.0000 C   0  0
   11.1899  -16.5572    0.0000 C   0  0
   13.3263  -18.7035    0.0000 O   0  0
   14.5078  -18.7035    0.0000 C   0  0
   16.2767  -17.6815    0.0000 C   0  0
   15.0989  -17.6804    0.0000 C   0  0
   16.8676  -18.7050    0.0000 C   0  0
   15.1011  -19.7310    0.0000 C   0  0
   16.2818  -19.7242    0.0000 C   0  0
  1  2  1  0
  2  3  2  0
  3  4  1  0
  4  5  2  0
  5  6  1  0
  6  1  2  0
  4  7  1  0
  7  8  1  0
  9  8  2  0
 10  9  1  0
 11 10  2  0
 12 11  1  0
 13 12  2  0
  8 13  1  0
 13 14  1  0
 11 15  1  0
  7 16  1  0
 17 16  1  0
 17 18  1  0
 18 19  1  0
 19 20  1  0
 20 16  1  0
 18 21  1  0
 21 22  1  0
 27 25  1  0
 26 27  2  0
 23 24  1  0
 25 23  2  0
 24 22  2  0
 22 26  1  0
M  END
> <Work Package>
C

> <Target ID>
P4_C_013

> <Smiles>

> <Status (Not started, Ongoing, Completed)>
Not Started

> <Target Proposed by>
Mycetos Github

> <Synthesis by>

$$$$
