Chemistry 0
  StarDrop          2D                              

 23 25  0  0  0  0  0  0  0  0999 V2000
    2.5956   -2.7031    0.0000 C   0  0  0  0  0  0  0  0  0  0  0  0
    2.5973   -1.5031    0.0000 C   0  0  0  0  0  0  0  0  0  0  0  0
    1.2990   -0.7500    0.0000 N   0  0  0  0  0  0  0  0  0  0  0  0
    1.2990    0.7500    0.0000 C   0  0  0  0  0  0  0  0  0  0  0  0
    0.0000    1.5000    0.0000 C   0  0  0  0  0  0  0  0  0  0  0  0
   -1.2990    0.7500    0.0000 N   0  0  0  0  0  0  0  0  0  0  0  0
   -1.2990   -0.7500    0.0000 C   0  0  0  0  0  0  0  0  0  0  0  0
    0.0000   -1.5000    0.0000 C   0  0  0  0  0  0  0  0  0  0  0  0
   -2.5998    1.4986    0.0000 C   0  0  0  0  0  0  0  0  0  0  0  0
   -3.8983    0.7460    0.0000 C   0  0  0  0  0  0  0  0  0  0  0  0
   -3.8989   -0.7540    0.0000 C   0  0  0  0  0  0  0  0  0  0  0  0
   -5.1982   -1.5035    0.0000 C   0  0  0  0  0  0  0  0  0  0  0  0
   -6.4970   -0.7530    0.0000 C   0  0  0  0  0  0  0  0  0  0  0  0
   -6.4964    0.7470    0.0000 N   0  0  0  0  0  0  0  0  0  0  0  0
   -5.1971    1.4965    0.0000 C   0  0  0  0  0  0  0  0  0  0  0  0
   -2.6013    2.9994    0.0000 C   0  0  0  0  0  0  0  0  0  0  0  0
   -3.9027    3.7455    0.0000 C   0  0  0  0  0  0  0  0  0  0  0  0
   -3.9073    5.2455    0.0000 C   0  0  0  0  0  0  0  0  0  0  0  0
   -2.6105    5.9995    0.0000 C   0  0  0  0  0  0  0  0  0  0  0  0
   -2.6142    7.1995    0.0000 Cl  0  0  0  0  0  0  0  0  0  0  0  0
   -1.3092    5.2535    0.0000 C   0  0  0  0  0  0  0  0  0  0  0  0
   -1.3046    3.7535    0.0000 C   0  0  0  0  0  0  0  0  0  0  0  0
   -0.2635    3.1567    0.0000 F   0  0  0  0  0  0  0  0  0  0  0  0
  1  2  1  0  0  0  0
  2  3  1  0  0  0  0
  3  4  1  0  0  0  0
  4  5  1  0  0  0  0
  5  6  1  0  0  0  0
  6  7  1  0  0  0  0
  7  8  1  0  0  0  0
  8  3  1  0  0  0  0
  6  9  1  0  0  0  0
  9 10  1  0  0  0  0
 10 11  2  0  0  0  0
 11 12  1  0  0  0  0
 12 13  2  0  0  0  0
 13 14  1  0  0  0  0
 14 15  2  0  0  0  0
 15 10  1  0  0  0  0
  9 16  1  0  0  0  0
 16 17  2  0  0  0  0
 17 18  1  0  0  0  0
 18 19  2  0  0  0  0
 19 20  1  0  0  0  0
 19 21  1  0  0  0  0
 21 22  2  0  0  0  0
 22 16  1  0  0  0  0
 22 23  1  0  0  0  0
M  END
>  <Work Package>
A

>  <Target ID>
P4_A_001

>  <Smiles>
CCN1CCN(CC1)C(c2cccnc2)c3ccc(Cl)cc3F

>  <Status >
Ongoing

>  <Target Proposed by>
Mycetos Github

>  <Synthesis by>
IMSA

>  <logD>
2.681

$$$$
Chemistry 1
  StarDrop          2D                              

 25 27  0  0  0  0  0  0  0  0999 V2000
    3.8916   -4.9570    0.0000 O   0  0  0  0  0  0  0  0  0  0  0  0
    3.8933   -3.7570    0.0000 C   0  0  0  0  0  0  0  0  0  0  0  0
    2.5951   -3.0039    0.0000 C   0  0  0  0  0  0  0  0  0  0  0  0
    2.5973   -1.5031    0.0000 C   0  0  0  0  0  0  0  0  0  0  0  0
    1.2990   -0.7500    0.0000 N   0  0  0  0  0  0  0  0  0  0  0  0
    1.2990    0.7500    0.0000 C   0  0  0  0  0  0  0  0  0  0  0  0
    0.0000    1.5000    0.0000 C   0  0  0  0  0  0  0  0  0  0  0  0
   -1.2990    0.7500    0.0000 N   0  0  0  0  0  0  0  0  0  0  0  0
   -1.2990   -0.7500    0.0000 C   0  0  0  0  0  0  0  0  0  0  0  0
    0.0000   -1.5000    0.0000 C   0  0  0  0  0  0  0  0  0  0  0  0
   -2.5998    1.4986    0.0000 C   0  0  0  0  0  0  0  0  0  0  0  0
   -3.8983    0.7460    0.0000 C   0  0  0  0  0  0  0  0  0  0  0  0
   -3.8989   -0.7540    0.0000 C   0  0  0  0  0  0  0  0  0  0  0  0
   -5.1982   -1.5035    0.0000 C   0  0  0  0  0  0  0  0  0  0  0  0
   -6.4970   -0.7530    0.0000 C   0  0  0  0  0  0  0  0  0  0  0  0
   -6.4964    0.7470    0.0000 N   0  0  0  0  0  0  0  0  0  0  0  0
   -5.1971    1.4965    0.0000 C   0  0  0  0  0  0  0  0  0  0  0  0
   -2.6013    2.9994    0.0000 C   0  0  0  0  0  0  0  0  0  0  0  0
   -3.9027    3.7455    0.0000 C   0  0  0  0  0  0  0  0  0  0  0  0
   -3.9073    5.2455    0.0000 C   0  0  0  0  0  0  0  0  0  0  0  0
   -2.6105    5.9995    0.0000 C   0  0  0  0  0  0  0  0  0  0  0  0
   -2.6142    7.1995    0.0000 Cl  0  0  0  0  0  0  0  0  0  0  0  0
   -1.3092    5.2535    0.0000 C   0  0  0  0  0  0  0  0  0  0  0  0
   -1.3046    3.7535    0.0000 C   0  0  0  0  0  0  0  0  0  0  0  0
   -0.2635    3.1567    0.0000 F   0  0  0  0  0  0  0  0  0  0  0  0
  1  2  1  0  0  0  0
  2  3  1  0  0  0  0
  3  4  1  0  0  0  0
  4  5  1  0  0  0  0
  5  6  1  0  0  0  0
  6  7  1  0  0  0  0
  7  8  1  0  0  0  0
  8  9  1  0  0  0  0
  9 10  1  0  0  0  0
 10  5  1  0  0  0  0
  8 11  1  0  0  0  0
 11 12  1  0  0  0  0
 12 13  2  0  0  0  0
 13 14  1  0  0  0  0
 14 15  2  0  0  0  0
 15 16  1  0  0  0  0
 16 17  2  0  0  0  0
 17 12  1  0  0  0  0
 11 18  1  0  0  0  0
 18 19  2  0  0  0  0
 19 20  1  0  0  0  0
 20 21  2  0  0  0  0
 21 22  1  0  0  0  0
 21 23  1  0  0  0  0
 23 24  2  0  0  0  0
 24 18  1  0  0  0  0
 24 25  1  0  0  0  0
M  END
>  <Work Package>
A

>  <Target ID>
P4_A_002

>  <Smiles>
OCCCN1CCN(CC1)C(c2cccnc2)c3ccc(Cl)cc3F

>  <Status >
Completed - in test

>  <Target Proposed by>
Mycetos Github

>  <Synthesis by>
UCL

>  <logD>
2.166

$$$$
Chemistry 2
  StarDrop          2D                              

 25 27  0  0  0  0  0  0  0  0999 V2000
    3.8916   -4.9570    0.0000 C   0  0  0  0  0  0  0  0  0  0  0  0
    3.8933   -3.7570    0.0000 O   0  0  0  0  0  0  0  0  0  0  0  0
    2.5951   -3.0039    0.0000 C   0  0  0  0  0  0  0  0  0  0  0  0
    2.5973   -1.5031    0.0000 C   0  0  0  0  0  0  0  0  0  0  0  0
    1.2990   -0.7500    0.0000 N   0  0  0  0  0  0  0  0  0  0  0  0
    1.2990    0.7500    0.0000 C   0  0  0  0  0  0  0  0  0  0  0  0
    0.0000    1.5000    0.0000 C   0  0  0  0  0  0  0  0  0  0  0  0
   -1.2990    0.7500    0.0000 N   0  0  0  0  0  0  0  0  0  0  0  0
   -1.2990   -0.7500    0.0000 C   0  0  0  0  0  0  0  0  0  0  0  0
    0.0000   -1.5000    0.0000 C   0  0  0  0  0  0  0  0  0  0  0  0
   -2.5998    1.4986    0.0000 C   0  0  0  0  0  0  0  0  0  0  0  0
   -3.8983    0.7460    0.0000 C   0  0  0  0  0  0  0  0  0  0  0  0
   -3.8989   -0.7540    0.0000 C   0  0  0  0  0  0  0  0  0  0  0  0
   -5.1982   -1.5035    0.0000 C   0  0  0  0  0  0  0  0  0  0  0  0
   -6.4970   -0.7530    0.0000 C   0  0  0  0  0  0  0  0  0  0  0  0
   -6.4964    0.7470    0.0000 N   0  0  0  0  0  0  0  0  0  0  0  0
   -5.1971    1.4965    0.0000 C   0  0  0  0  0  0  0  0  0  0  0  0
   -2.6013    2.9994    0.0000 C   0  0  0  0  0  0  0  0  0  0  0  0
   -3.9027    3.7455    0.0000 C   0  0  0  0  0  0  0  0  0  0  0  0
   -3.9073    5.2455    0.0000 C   0  0  0  0  0  0  0  0  0  0  0  0
   -2.6105    5.9995    0.0000 C   0  0  0  0  0  0  0  0  0  0  0  0
   -2.6142    7.1995    0.0000 Cl  0  0  0  0  0  0  0  0  0  0  0  0
   -1.3092    5.2535    0.0000 C   0  0  0  0  0  0  0  0  0  0  0  0
   -1.3046    3.7535    0.0000 C   0  0  0  0  0  0  0  0  0  0  0  0
   -0.2635    3.1567    0.0000 F   0  0  0  0  0  0  0  0  0  0  0  0
  1  2  1  0  0  0  0
  2  3  1  0  0  0  0
  3  4  1  0  0  0  0
  4  5  1  0  0  0  0
  5  6  1  0  0  0  0
  6  7  1  0  0  0  0
  7  8  1  0  0  0  0
  8  9  1  0  0  0  0
  9 10  1  0  0  0  0
 10  5  1  0  0  0  0
  8 11  1  0  0  0  0
 11 12  1  0  0  0  0
 12 13  2  0  0  0  0
 13 14  1  0  0  0  0
 14 15  2  0  0  0  0
 15 16  1  0  0  0  0
 16 17  2  0  0  0  0
 17 12  1  0  0  0  0
 11 18  1  0  0  0  0
 18 19  2  0  0  0  0
 19 20  1  0  0  0  0
 20 21  2  0  0  0  0
 21 22  1  0  0  0  0
 21 23  1  0  0  0  0
 23 24  2  0  0  0  0
 24 18  1  0  0  0  0
 24 25  1  0  0  0  0
M  END
>  <Work Package>
A

>  <Target ID>
P4_A_003

>  <Smiles>
COCCN1CCN(CC1)C(c2cccnc2)c3ccc(Cl)cc3F

>  <Status >
Ongoing

>  <Target Proposed by>
Mycetos Github

>  <Synthesis by>
IMSA

>  <logD>
2.574

$$$$
Chemistry 3
  StarDrop          2D                              

 26 29  0  0  0  0  0  0  0  0999 V2000
    2.3383   -1.3500    0.0000 F   0  0  0  0  0  0  0  0  0  0  0  0
    1.2990   -0.7500    0.0000 C   0  0  0  0  0  0  0  0  0  0  0  0
    1.2990    0.7500    0.0000 C   0  0  0  0  0  0  0  0  0  0  0  0
    0.0000    1.5000    0.0000 C   0  0  0  0  0  0  0  0  0  0  0  0
    0.0000    2.7000    0.0000 Cl  0  0  0  0  0  0  0  0  0  0  0  0
   -1.2990    0.7500    0.0000 C   0  0  0  0  0  0  0  0  0  0  0  0
   -1.2990   -0.7500    0.0000 C   0  0  0  0  0  0  0  0  0  0  0  0
    0.0000   -1.5000    0.0000 C   0  0  0  0  0  0  0  0  0  0  0  0
   -0.0031   -3.0008    0.0000 C   0  0  0  0  0  0  0  0  0  0  0  0
    1.2953   -3.7535    0.0000 N   0  0  0  0  0  0  0  0  0  0  0  0
    1.2948   -5.2535    0.0000 C   0  0  0  0  0  0  0  0  0  0  0  0
    2.5936   -6.0040    0.0000 C   0  0  0  0  0  0  0  0  0  0  0  0
    3.8929   -5.2545    0.0000 N   0  0  0  0  0  0  0  0  0  0  0  0
    3.8935   -3.7545    0.0000 C   0  0  0  0  0  0  0  0  0  0  0  0
    2.5947   -3.0040    0.0000 C   0  0  0  0  0  0  0  0  0  0  0  0
    5.1923   -6.0054    0.0000 C   0  0  0  0  0  0  0  0  0  0  0  0
    5.3320   -7.4861    0.0000 C   0  0  0  0  0  0  0  0  0  0  0  0
    6.7996   -7.7962    0.0000 C   0  0  0  0  0  0  0  0  0  0  0  0
    7.5480   -6.4962    0.0000 C   0  0  0  0  0  0  0  0  0  0  0  0
    6.5430   -5.3827    0.0000 C   0  0  0  0  0  0  0  0  0  0  0  0
   -1.3039   -3.7494    0.0000 C   0  0  0  0  0  0  0  0  0  0  0  0
   -1.3092   -5.2494    0.0000 C   0  0  0  0  0  0  0  0  0  0  0  0
   -2.6108   -5.9949    0.0000 C   0  0  0  0  0  0  0  0  0  0  0  0
   -3.9072   -5.2404    0.0000 C   0  0  0  0  0  0  0  0  0  0  0  0
   -3.9020   -3.7404    0.0000 N   0  0  0  0  0  0  0  0  0  0  0  0
   -2.6004   -2.9949    0.0000 C   0  0  0  0  0  0  0  0  0  0  0  0
  1  2  1  0  0  0  0
  2  3  2  0  0  0  0
  3  4  1  0  0  0  0
  4  5  1  0  0  0  0
  4  6  2  0  0  0  0
  6  7  1  0  0  0  0
  7  8  2  0  0  0  0
  8  2  1  0  0  0  0
  8  9  1  0  0  0  0
  9 10  1  0  0  0  0
 10 11  1  0  0  0  0
 11 12  1  0  0  0  0
 12 13  1  0  0  0  0
 13 14  1  0  0  0  0
 14 15  1  0  0  0  0
 15 10  1  0  0  0  0
 13 16  1  0  0  0  0
 16 17  1  0  0  0  0
 17 18  1  0  0  0  0
 18 19  1  0  0  0  0
 19 20  1  0  0  0  0
 20 16  1  0  0  0  0
  9 21  1  0  0  0  0
 21 22  2  0  0  0  0
 22 23  1  0  0  0  0
 23 24  2  0  0  0  0
 24 25  1  0  0  0  0
 25 26  2  0  0  0  0
 26 21  1  0  0  0  0
M  END
>  <Work Package>
A

>  <Target ID>
P4_A_004

>  <Smiles>
Fc1cc(Cl)ccc1C(N2CCN(CC2)C3CCCC3)c4cccnc4

>  <Status >
Not Started

>  <Target Proposed by>
Mycetos Github

>  <Synthesis by>
>  <logD>
2.983

$$$$
Chemistry 4
  StarDrop          2D                              

 26 28  0  0  0  0  0  0  0  0999 V2000
    3.8916   -4.9570    0.0000 C   0  0  0  0  0  0  0  0  0  0  0  0
    3.8933   -3.7570    0.0000 C   0  0  0  0  0  0  0  0  0  0  0  0
    2.5951   -3.0039    0.0000 N   0  0  0  0  0  0  0  0  0  0  0  0
    2.5973   -1.5031    0.0000 C   0  0  0  0  0  0  0  0  0  0  0  0
    3.6375   -0.9049    0.0000 O   0  0  0  0  0  0  0  0  0  0  0  0
    1.2990   -0.7500    0.0000 N   0  0  0  0  0  0  0  0  0  0  0  0
    1.2990    0.7500    0.0000 C   0  0  0  0  0  0  0  0  0  0  0  0
    0.0000    1.5000    0.0000 C   0  0  0  0  0  0  0  0  0  0  0  0
   -1.2990    0.7500    0.0000 N   0  0  0  0  0  0  0  0  0  0  0  0
   -1.2990   -0.7500    0.0000 C   0  0  0  0  0  0  0  0  0  0  0  0
    0.0000   -1.5000    0.0000 C   0  0  0  0  0  0  0  0  0  0  0  0
   -2.5998    1.4986    0.0000 C   0  0  0  0  0  0  0  0  0  0  0  0
   -3.8983    0.7460    0.0000 C   0  0  0  0  0  0  0  0  0  0  0  0
   -3.8989   -0.7540    0.0000 C   0  0  0  0  0  0  0  0  0  0  0  0
   -5.1982   -1.5035    0.0000 C   0  0  0  0  0  0  0  0  0  0  0  0
   -6.4970   -0.7530    0.0000 C   0  0  0  0  0  0  0  0  0  0  0  0
   -6.4964    0.7470    0.0000 N   0  0  0  0  0  0  0  0  0  0  0  0
   -5.1971    1.4965    0.0000 C   0  0  0  0  0  0  0  0  0  0  0  0
   -2.6013    2.9994    0.0000 C   0  0  0  0  0  0  0  0  0  0  0  0
   -3.9027    3.7455    0.0000 C   0  0  0  0  0  0  0  0  0  0  0  0
   -3.9073    5.2455    0.0000 C   0  0  0  0  0  0  0  0  0  0  0  0
   -2.6105    5.9995    0.0000 C   0  0  0  0  0  0  0  0  0  0  0  0
   -2.6142    7.1995    0.0000 Cl  0  0  0  0  0  0  0  0  0  0  0  0
   -1.3092    5.2535    0.0000 C   0  0  0  0  0  0  0  0  0  0  0  0
   -1.3046    3.7535    0.0000 C   0  0  0  0  0  0  0  0  0  0  0  0
   -0.2635    3.1567    0.0000 F   0  0  0  0  0  0  0  0  0  0  0  0
  1  2  1  0  0  0  0
  2  3  1  0  0  0  0
  3  4  1  0  0  0  0
  4  5  2  0  0  0  0
  4  6  1  0  0  0  0
  6  7  1  0  0  0  0
  7  8  1  0  0  0  0
  8  9  1  0  0  0  0
  9 10  1  0  0  0  0
 10 11  1  0  0  0  0
 11  6  1  0  0  0  0
  9 12  1  0  0  0  0
 12 13  1  0  0  0  0
 13 14  2  0  0  0  0
 14 15  1  0  0  0  0
 15 16  2  0  0  0  0
 16 17  1  0  0  0  0
 17 18  2  0  0  0  0
 18 13  1  0  0  0  0
 12 19  1  0  0  0  0
 19 20  2  0  0  0  0
 20 21  1  0  0  0  0
 21 22  2  0  0  0  0
 22 23  1  0  0  0  0
 22 24  1  0  0  0  0
 24 25  2  0  0  0  0
 25 19  1  0  0  0  0
 25 26  1  0  0  0  0
M  END
>  <Work Package>
A

>  <Target ID>
P4_A_005

>  <Smiles>
CCNC(=O)N1CCN(CC1)C(c2cccnc2)c3ccc(Cl)cc3F

>  <Status >
Ongoing

>  <Target Proposed by>
Mycetos Github

>  <Synthesis by>
UCL

>  <logD>
2.264

$$$$
Chemistry 5
  StarDrop          2D                              

 26 28  0  0  0  0  0  0  0  0999 V2000
    3.6331   -3.6060    0.0000 C   0  0  0  0  0  0  0  0  0  0  0  0
    2.5951   -3.0039    0.0000 N   0  0  0  0  0  0  0  0  0  0  0  0
    1.5548   -3.6021    0.0000 C   0  0  0  0  0  0  0  0  0  0  0  0
    2.5973   -1.5031    0.0000 C   0  0  0  0  0  0  0  0  0  0  0  0
    3.6375   -0.9049    0.0000 O   0  0  0  0  0  0  0  0  0  0  0  0
    1.2990   -0.7500    0.0000 N   0  0  0  0  0  0  0  0  0  0  0  0
    1.2990    0.7500    0.0000 C   0  0  0  0  0  0  0  0  0  0  0  0
    0.0000    1.5000    0.0000 C   0  0  0  0  0  0  0  0  0  0  0  0
   -1.2990    0.7500    0.0000 N   0  0  0  0  0  0  0  0  0  0  0  0
   -1.2990   -0.7500    0.0000 C   0  0  0  0  0  0  0  0  0  0  0  0
    0.0000   -1.5000    0.0000 C   0  0  0  0  0  0  0  0  0  0  0  0
   -2.5998    1.4986    0.0000 C   0  0  0  0  0  0  0  0  0  0  0  0
   -3.8983    0.7460    0.0000 C   0  0  0  0  0  0  0  0  0  0  0  0
   -3.8989   -0.7540    0.0000 C   0  0  0  0  0  0  0  0  0  0  0  0
   -5.1982   -1.5035    0.0000 C   0  0  0  0  0  0  0  0  0  0  0  0
   -6.4970   -0.7530    0.0000 C   0  0  0  0  0  0  0  0  0  0  0  0
   -6.4964    0.7470    0.0000 N   0  0  0  0  0  0  0  0  0  0  0  0
   -5.1971    1.4965    0.0000 C   0  0  0  0  0  0  0  0  0  0  0  0
   -2.6013    2.9994    0.0000 C   0  0  0  0  0  0  0  0  0  0  0  0
   -3.9027    3.7455    0.0000 C   0  0  0  0  0  0  0  0  0  0  0  0
   -3.9073    5.2455    0.0000 C   0  0  0  0  0  0  0  0  0  0  0  0
   -2.6105    5.9995    0.0000 C   0  0  0  0  0  0  0  0  0  0  0  0
   -2.6142    7.1995    0.0000 Cl  0  0  0  0  0  0  0  0  0  0  0  0
   -1.3092    5.2535    0.0000 C   0  0  0  0  0  0  0  0  0  0  0  0
   -1.3046    3.7535    0.0000 C   0  0  0  0  0  0  0  0  0  0  0  0
   -0.2635    3.1567    0.0000 F   0  0  0  0  0  0  0  0  0  0  0  0
  1  2  1  0  0  0  0
  2  3  1  0  0  0  0
  2  4  1  0  0  0  0
  4  5  2  0  0  0  0
  4  6  1  0  0  0  0
  6  7  1  0  0  0  0
  7  8  1  0  0  0  0
  8  9  1  0  0  0  0
  9 10  1  0  0  0  0
 10 11  1  0  0  0  0
 11  6  1  0  0  0  0
  9 12  1  0  0  0  0
 12 13  1  0  0  0  0
 13 14  2  0  0  0  0
 14 15  1  0  0  0  0
 15 16  2  0  0  0  0
 16 17  1  0  0  0  0
 17 18  2  0  0  0  0
 18 13  1  0  0  0  0
 12 19  1  0  0  0  0
 19 20  2  0  0  0  0
 20 21  1  0  0  0  0
 21 22  2  0  0  0  0
 22 23  1  0  0  0  0
 22 24  1  0  0  0  0
 24 25  2  0  0  0  0
 25 19  1  0  0  0  0
 25 26  1  0  0  0  0
M  END
>  <Work Package>
A

>  <Target ID>
P4_A_006

>  <Smiles>
CN(C)C(=O)N1CCN(CC1)C(c2cccnc2)c3ccc(Cl)cc3F

>  <Status >
Ongoing

>  <Target Proposed by>
Mycetos Github

>  <Synthesis by>
IMSA

>  <logD>
2.048

$$$$
Chemistry 6
  StarDrop          2D                              

 26 28  0  0  0  0  0  0  0  0999 V2000
    3.8916   -4.9570    0.0000 C   0  0  0  0  0  0  0  0  0  0  0  0
    3.8933   -3.7570    0.0000 N   0  0  0  0  0  0  0  0  0  0  0  0
    4.9336   -3.1588    0.0000 C   0  0  0  0  0  0  0  0  0  0  0  0
    2.5951   -3.0039    0.0000 C   0  0  0  0  0  0  0  0  0  0  0  0
    2.5973   -1.5031    0.0000 C   0  0  0  0  0  0  0  0  0  0  0  0
    1.2990   -0.7500    0.0000 N   0  0  0  0  0  0  0  0  0  0  0  0
    1.2990    0.7500    0.0000 C   0  0  0  0  0  0  0  0  0  0  0  0
    0.0000    1.5000    0.0000 C   0  0  0  0  0  0  0  0  0  0  0  0
   -1.2990    0.7500    0.0000 N   0  0  0  0  0  0  0  0  0  0  0  0
   -1.2990   -0.7500    0.0000 C   0  0  0  0  0  0  0  0  0  0  0  0
    0.0000   -1.5000    0.0000 C   0  0  0  0  0  0  0  0  0  0  0  0
   -2.5998    1.4986    0.0000 C   0  0  0  0  0  0  0  0  0  0  0  0
   -3.8983    0.7460    0.0000 C   0  0  0  0  0  0  0  0  0  0  0  0
   -3.8989   -0.7540    0.0000 C   0  0  0  0  0  0  0  0  0  0  0  0
   -5.1982   -1.5035    0.0000 C   0  0  0  0  0  0  0  0  0  0  0  0
   -6.4970   -0.7530    0.0000 C   0  0  0  0  0  0  0  0  0  0  0  0
   -6.4964    0.7470    0.0000 N   0  0  0  0  0  0  0  0  0  0  0  0
   -5.1971    1.4965    0.0000 C   0  0  0  0  0  0  0  0  0  0  0  0
   -2.6013    2.9994    0.0000 C   0  0  0  0  0  0  0  0  0  0  0  0
   -3.9027    3.7455    0.0000 C   0  0  0  0  0  0  0  0  0  0  0  0
   -3.9073    5.2455    0.0000 C   0  0  0  0  0  0  0  0  0  0  0  0
   -2.6105    5.9995    0.0000 C   0  0  0  0  0  0  0  0  0  0  0  0
   -2.6142    7.1995    0.0000 Cl  0  0  0  0  0  0  0  0  0  0  0  0
   -1.3092    5.2535    0.0000 C   0  0  0  0  0  0  0  0  0  0  0  0
   -1.3046    3.7535    0.0000 C   0  0  0  0  0  0  0  0  0  0  0  0
   -0.2635    3.1567    0.0000 F   0  0  0  0  0  0  0  0  0  0  0  0
  1  2  1  0  0  0  0
  2  3  1  0  0  0  0
  2  4  1  0  0  0  0
  4  5  1  0  0  0  0
  5  6  1  0  0  0  0
  6  7  1  0  0  0  0
  7  8  1  0  0  0  0
  8  9  1  0  0  0  0
  9 10  1  0  0  0  0
 10 11  1  0  0  0  0
 11  6  1  0  0  0  0
  9 12  1  0  0  0  0
 12 13  1  0  0  0  0
 13 14  2  0  0  0  0
 14 15  1  0  0  0  0
 15 16  2  0  0  0  0
 16 17  1  0  0  0  0
 17 18  2  0  0  0  0
 18 13  1  0  0  0  0
 12 19  1  0  0  0  0
 19 20  2  0  0  0  0
 20 21  1  0  0  0  0
 21 22  2  0  0  0  0
 22 23  1  0  0  0  0
 22 24  1  0  0  0  0
 24 25  2  0  0  0  0
 25 19  1  0  0  0  0
 25 26  1  0  0  0  0
M  END
>  <Work Package>
A

>  <Target ID>
P4_A_007

>  <Smiles>
CN(C)CCN1CCN(CC1)C(c2cccnc2)c3ccc(Cl)cc3F

>  <Status >
Completed - in test

>  <Target Proposed by>
Mycetos Github

>  <Synthesis by>
UCL

>  <logD>
2.007

$$$$
Chemistry 7
  StarDrop          2D                              

 28 31  0  0  0  0  0  0  0  0999 V2000
    2.3383   -1.3500    0.0000 F   0  0  0  0  0  0  0  0  0  0  0  0
    1.2990   -0.7500    0.0000 C   0  0  0  0  0  0  0  0  0  0  0  0
    1.2990    0.7500    0.0000 C   0  0  0  0  0  0  0  0  0  0  0  0
    0.0000    1.5000    0.0000 C   0  0  0  0  0  0  0  0  0  0  0  0
    0.0000    2.7000    0.0000 Cl  0  0  0  0  0  0  0  0  0  0  0  0
   -1.2990    0.7500    0.0000 C   0  0  0  0  0  0  0  0  0  0  0  0
   -1.2990   -0.7500    0.0000 C   0  0  0  0  0  0  0  0  0  0  0  0
    0.0000   -1.5000    0.0000 C   0  0  0  0  0  0  0  0  0  0  0  0
   -0.0031   -3.0008    0.0000 C   0  0  0  0  0  0  0  0  0  0  0  0
    1.2953   -3.7535    0.0000 N   0  0  0  0  0  0  0  0  0  0  0  0
    1.2948   -5.2535    0.0000 C   0  0  0  0  0  0  0  0  0  0  0  0
    2.5936   -6.0040    0.0000 C   0  0  0  0  0  0  0  0  0  0  0  0
    3.8929   -5.2545    0.0000 N   0  0  0  0  0  0  0  0  0  0  0  0
    5.1939   -6.0027    0.0000 C   0  0  0  0  0  0  0  0  0  0  0  0
    6.4929   -5.2510    0.0000 C   0  0  0  0  0  0  0  0  0  0  0  0
    7.7943   -5.9969    0.0000 C   0  0  0  0  0  0  0  0  0  0  0  0
    9.0910   -5.2429    0.0000 C   0  0  0  0  0  0  0  0  0  0  0  0
    9.0864   -3.7429    0.0000 C   0  0  0  0  0  0  0  0  0  0  0  0
    7.7851   -2.9969    0.0000 C   0  0  0  0  0  0  0  0  0  0  0  0
    6.4883   -3.7509    0.0000 C   0  0  0  0  0  0  0  0  0  0  0  0
    3.8935   -3.7545    0.0000 C   0  0  0  0  0  0  0  0  0  0  0  0
    2.5947   -3.0040    0.0000 C   0  0  0  0  0  0  0  0  0  0  0  0
   -1.3039   -3.7494    0.0000 C   0  0  0  0  0  0  0  0  0  0  0  0
   -1.3092   -5.2494    0.0000 C   0  0  0  0  0  0  0  0  0  0  0  0
   -2.6108   -5.9949    0.0000 C   0  0  0  0  0  0  0  0  0  0  0  0
   -3.9072   -5.2404    0.0000 C   0  0  0  0  0  0  0  0  0  0  0  0
   -3.9020   -3.7404    0.0000 N   0  0  0  0  0  0  0  0  0  0  0  0
   -2.6004   -2.9949    0.0000 C   0  0  0  0  0  0  0  0  0  0  0  0
  1  2  1  0  0  0  0
  2  3  2  0  0  0  0
  3  4  1  0  0  0  0
  4  5  1  0  0  0  0
  4  6  2  0  0  0  0
  6  7  1  0  0  0  0
  7  8  2  0  0  0  0
  8  2  1  0  0  0  0
  8  9  1  0  0  0  0
  9 10  1  0  0  0  0
 10 11  1  0  0  0  0
 11 12  1  0  0  0  0
 12 13  1  0  0  0  0
 13 14  1  0  0  0  0
 14 15  1  0  0  0  0
 15 16  2  0  0  0  0
 16 17  1  0  0  0  0
 17 18  2  0  0  0  0
 18 19  1  0  0  0  0
 19 20  2  0  0  0  0
 20 15  1  0  0  0  0
 13 21  1  0  0  0  0
 21 22  1  0  0  0  0
 22 10  1  0  0  0  0
  9 23  1  0  0  0  0
 23 24  2  0  0  0  0
 24 25  1  0  0  0  0
 25 26  2  0  0  0  0
 26 27  1  0  0  0  0
 27 28  2  0  0  0  0
 28 23  1  0  0  0  0
M  END
>  <Work Package>
A

>  <Target ID>
P4_A_008

>  <Smiles>
Fc1cc(Cl)ccc1C(N2CCN(Cc3ccccc3)CC2)c4cccnc4

>  <Status >
Ongoing

>  <Target Proposed by>
Mycetos Github

>  <Synthesis by>
Sevenoaks

>  <logD>
3.6

$$$$
Chemistry 8
  StarDrop          2D                              

 26 28  0  0  0  0  0  0  0  0999 V2000
    3.8916   -4.9570    0.0000 C   0  0  0  0  0  0  0  0  0  0  0  0
    3.8933   -3.7570    0.0000 O   0  0  0  0  0  0  0  0  0  0  0  0
    2.5951   -3.0039    0.0000 C   0  0  0  0  0  0  0  0  0  0  0  0
    1.5548   -3.6021    0.0000 O   0  0  0  0  0  0  0  0  0  0  0  0
    2.5973   -1.5031    0.0000 C   0  0  0  0  0  0  0  0  0  0  0  0
    1.2990   -0.7500    0.0000 N   0  0  0  0  0  0  0  0  0  0  0  0
    1.2990    0.7500    0.0000 C   0  0  0  0  0  0  0  0  0  0  0  0
    0.0000    1.5000    0.0000 C   0  0  0  0  0  0  0  0  0  0  0  0
   -1.2990    0.7500    0.0000 N   0  0  0  0  0  0  0  0  0  0  0  0
   -1.2990   -0.7500    0.0000 C   0  0  0  0  0  0  0  0  0  0  0  0
    0.0000   -1.5000    0.0000 C   0  0  0  0  0  0  0  0  0  0  0  0
   -2.5998    1.4986    0.0000 C   0  0  0  0  0  0  0  0  0  0  0  0
   -3.8983    0.7460    0.0000 C   0  0  0  0  0  0  0  0  0  0  0  0
   -3.8989   -0.7540    0.0000 C   0  0  0  0  0  0  0  0  0  0  0  0
   -5.1982   -1.5035    0.0000 C   0  0  0  0  0  0  0  0  0  0  0  0
   -6.4970   -0.7530    0.0000 C   0  0  0  0  0  0  0  0  0  0  0  0
   -6.4964    0.7470    0.0000 N   0  0  0  0  0  0  0  0  0  0  0  0
   -5.1971    1.4965    0.0000 C   0  0  0  0  0  0  0  0  0  0  0  0
   -2.6013    2.9994    0.0000 C   0  0  0  0  0  0  0  0  0  0  0  0
   -3.9027    3.7455    0.0000 C   0  0  0  0  0  0  0  0  0  0  0  0
   -3.9073    5.2455    0.0000 C   0  0  0  0  0  0  0  0  0  0  0  0
   -2.6105    5.9995    0.0000 C   0  0  0  0  0  0  0  0  0  0  0  0
   -2.6142    7.1995    0.0000 Cl  0  0  0  0  0  0  0  0  0  0  0  0
   -1.3092    5.2535    0.0000 C   0  0  0  0  0  0  0  0  0  0  0  0
   -1.3046    3.7535    0.0000 C   0  0  0  0  0  0  0  0  0  0  0  0
   -0.2635    3.1567    0.0000 F   0  0  0  0  0  0  0  0  0  0  0  0
  1  2  1  0  0  0  0
  2  3  1  0  0  0  0
  3  4  2  0  0  0  0
  3  5  1  0  0  0  0
  5  6  1  0  0  0  0
  6  7  1  0  0  0  0
  7  8  1  0  0  0  0
  8  9  1  0  0  0  0
  9 10  1  0  0  0  0
 10 11  1  0  0  0  0
 11  6  1  0  0  0  0
  9 12  1  0  0  0  0
 12 13  1  0  0  0  0
 13 14  2  0  0  0  0
 14 15  1  0  0  0  0
 15 16  2  0  0  0  0
 16 17  1  0  0  0  0
 17 18  2  0  0  0  0
 18 13  1  0  0  0  0
 12 19  1  0  0  0  0
 19 20  2  0  0  0  0
 20 21  1  0  0  0  0
 21 22  2  0  0  0  0
 22 23  1  0  0  0  0
 22 24  1  0  0  0  0
 24 25  2  0  0  0  0
 25 19  1  0  0  0  0
 25 26  1  0  0  0  0
M  END
>  <Work Package>
A

>  <Target ID>
P4_A_009

>  <Smiles>
COC(=O)CN1CCN(CC1)C(c2cccnc2)c3ccc(Cl)cc3F

>  <Status >
Ongoing

>  <Target Proposed by>
Mycetos Github

>  <Synthesis by>
KS U of Sydney

>  <logD>
2.174

$$$$
Chemistry 9
  StarDrop          2D                              

 26 28  0  0  0  0  0  0  0  0999 V2000
    3.8916   -4.9570    0.0000 C   0  0  0  0  0  0  0  0  0  0  0  0
    3.8933   -3.7570    0.0000 N   0  0  0  0  0  0  0  0  0  0  0  0
    2.5951   -3.0039    0.0000 C   0  0  0  0  0  0  0  0  0  0  0  0
    1.5548   -3.6021    0.0000 O   0  0  0  0  0  0  0  0  0  0  0  0
    2.5973   -1.5031    0.0000 C   0  0  0  0  0  0  0  0  0  0  0  0
    1.2990   -0.7500    0.0000 N   0  0  0  0  0  0  0  0  0  0  0  0
    1.2990    0.7500    0.0000 C   0  0  0  0  0  0  0  0  0  0  0  0
    0.0000    1.5000    0.0000 C   0  0  0  0  0  0  0  0  0  0  0  0
   -1.2990    0.7500    0.0000 N   0  0  0  0  0  0  0  0  0  0  0  0
   -1.2990   -0.7500    0.0000 C   0  0  0  0  0  0  0  0  0  0  0  0
    0.0000   -1.5000    0.0000 C   0  0  0  0  0  0  0  0  0  0  0  0
   -2.5998    1.4986    0.0000 C   0  0  0  0  0  0  0  0  0  0  0  0
   -3.8983    0.7460    0.0000 C   0  0  0  0  0  0  0  0  0  0  0  0
   -3.8989   -0.7540    0.0000 C   0  0  0  0  0  0  0  0  0  0  0  0
   -5.1982   -1.5035    0.0000 C   0  0  0  0  0  0  0  0  0  0  0  0
   -6.4970   -0.7530    0.0000 C   0  0  0  0  0  0  0  0  0  0  0  0
   -6.4964    0.7470    0.0000 N   0  0  0  0  0  0  0  0  0  0  0  0
   -5.1971    1.4965    0.0000 C   0  0  0  0  0  0  0  0  0  0  0  0
   -2.6013    2.9994    0.0000 C   0  0  0  0  0  0  0  0  0  0  0  0
   -3.9027    3.7455    0.0000 C   0  0  0  0  0  0  0  0  0  0  0  0
   -3.9073    5.2455    0.0000 C   0  0  0  0  0  0  0  0  0  0  0  0
   -2.6105    5.9995    0.0000 C   0  0  0  0  0  0  0  0  0  0  0  0
   -2.6142    7.1995    0.0000 Cl  0  0  0  0  0  0  0  0  0  0  0  0
   -1.3092    5.2535    0.0000 C   0  0  0  0  0  0  0  0  0  0  0  0
   -1.3046    3.7535    0.0000 C   0  0  0  0  0  0  0  0  0  0  0  0
   -0.2635    3.1567    0.0000 F   0  0  0  0  0  0  0  0  0  0  0  0
  1  2  1  0  0  0  0
  2  3  1  0  0  0  0
  3  4  2  0  0  0  0
  3  5  1  0  0  0  0
  5  6  1  0  0  0  0
  6  7  1  0  0  0  0
  7  8  1  0  0  0  0
  8  9  1  0  0  0  0
  9 10  1  0  0  0  0
 10 11  1  0  0  0  0
 11  6  1  0  0  0  0
  9 12  1  0  0  0  0
 12 13  1  0  0  0  0
 13 14  2  0  0  0  0
 14 15  1  0  0  0  0
 15 16  2  0  0  0  0
 16 17  1  0  0  0  0
 17 18  2  0  0  0  0
 18 13  1  0  0  0  0
 12 19  1  0  0  0  0
 19 20  2  0  0  0  0
 20 21  1  0  0  0  0
 21 22  2  0  0  0  0
 22 23  1  0  0  0  0
 22 24  1  0  0  0  0
 24 25  2  0  0  0  0
 25 19  1  0  0  0  0
 25 26  1  0  0  0  0
M  END
>  <Work Package>
A

>  <Target ID>
P4_A_010

>  <Smiles>
CNC(=O)CN1CCN(CC1)C(c2cccnc2)c3ccc(Cl)cc3F

>  <Status >
Ongoing

>  <Target Proposed by>
Mycetos Github

>  <Synthesis by>
KS U of Sydney

>  <logD>
2.022

$$$$
Chemistry 0
  StarDrop          2D                              

 28 30  0  0  0  0  0  0  0  0999 V2000
    9.0797   -6.6638    0.0000 C   0  0  0  0  0  0  0  0  0  0  0  0
    9.0797   -7.8500    0.0000 C   0  0  0  0  0  0  0  0  0  0  0  0
   10.1053   -8.4342    0.0000 C   0  0  0  0  0  0  0  0  0  0  0  0
   11.1220   -7.8447    0.0000 C   0  0  0  0  0  0  0  0  0  0  0  0
   11.1220   -6.6632    0.0000 C   0  0  0  0  0  0  0  0  0  0  0  0
   10.1028   -6.0735    0.0000 N   0  0  0  0  0  0  0  0  0  0  0  0
   12.1452   -8.4354    0.0000 C   0  0  0  0  0  0  0  0  0  0  0  0
   13.1683   -7.8447    0.0000 C   0  0  0  0  0  0  0  0  0  0  0  0
   13.1683   -6.6631    0.0000 C   0  0  0  0  0  0  0  0  0  0  0  0
   14.1893   -6.0751    0.0000 C   0  0  0  0  0  0  0  0  0  0  0  0
   15.2128   -6.6660    0.0000 C   0  0  0  0  0  0  0  0  0  0  0  0
   15.2128   -7.8416    0.0000 C   0  0  0  0  0  0  0  0  0  0  0  0
   14.1959   -8.4379    0.0000 C   0  0  0  0  0  0  0  0  0  0  0  0
   14.1959   -9.6194    0.0000 F   0  0  0  0  0  0  0  0  0  0  0  0
   16.2359   -6.0753    0.0000 Cl  0  0  0  0  0  0  0  0  0  0  0  0
   12.1452   -9.6169    0.0000 N   0  0  0  0  0  0  0  0  0  0  0  0
   13.1683  -10.2076    0.0000 C   0  0  0  0  0  0  0  0  0  0  0  0
   13.1683  -11.3890    0.0000 C   0  0  0  0  0  0  0  0  0  0  0  0
   12.1451  -11.9797    0.0000 N   0  0  0  0  0  0  0  0  0  0  0  0
   11.1220  -11.3890    0.0000 C   0  0  0  0  0  0  0  0  0  0  0  0
   11.1220  -10.2076    0.0000 C   0  0  0  0  0  0  0  0  0  0  0  0
   12.1451  -13.1612    0.0000 C   0  0  0  0  0  0  0  0  0  0  0  0
   13.1683  -13.7519    0.0000 O   0  0  0  0  0  0  0  0  0  0  0  0
   14.1914  -13.1612    0.0000 C   0  0  0  0  0  0  0  0  0  0  0  0
   15.2146  -13.7519    0.0000 C   0  0  0  0  0  0  0  0  0  0  0  0
   11.1219  -13.7519    0.0000 O   0  0  0  0  0  0  0  0  0  0  0  0
   14.1914  -11.9797    0.0000 C   0  0  0  0  0  0  0  0  0  0  0  0
   14.1914  -14.3427    0.0000 C   0  0  0  0  0  0  0  0  0  0  0  0
  1  2  1  0  0  0  0
  2  3  2  0  0  0  0
  3  4  1  0  0  0  0
  4  5  2  0  0  0  0
  5  6  1  0  0  0  0
  6  1  2  0  0  0  0
  4  7  1  0  0  0  0
  7  8  1  0  0  0  0
  9  8  2  0  0  0  0
 10  9  1  0  0  0  0
 11 10  2  0  0  0  0
 12 11  1  0  0  0  0
 13 12  2  0  0  0  0
  8 13  1  0  0  0  0
 13 14  1  0  0  0  0
 11 15  1  0  0  0  0
  7 16  1  0  0  0  0
 17 16  1  0  0  0  0
 18 17  1  0  0  0  0
 19 18  1  0  0  0  0
 20 19  1  0  0  0  0
 21 20  1  0  0  0  0
 16 21  1  0  0  0  0
 19 22  1  0  0  0  0
 22 23  1  0  0  0  0
 23 24  1  0  0  0  0
 24 25  1  0  0  0  0
 22 26  2  0  0  0  0
 24 27  1  0  0  0  0
 24 28  1  0  0  0  0
M  END
>  <Work Package>
A

>  <Target ID>
P4_A_011

>  <Smiles>
CC(C)(C)OC(=O)N1CCN(CC1)C(c2cccnc2)c3ccc(Cl)cc3F

>  <Status >
completed - in test

>  <Target Proposed by>
U of Ghana

>  <Synthesis by>
U of Ghana

>  <logD>
2.793

$$$$
Chemistry 0
  StarDrop          2D                              

 24 26  0  0  0  0  0  0  0  0999 V2000
    7.3297   -4.3973    0.0000 C   0  0  0  0  0  0  0  0  0  0  0  0
    7.3297   -5.5835    0.0000 C   0  0  0  0  0  0  0  0  0  0  0  0
    8.3553   -6.1677    0.0000 C   0  0  0  0  0  0  0  0  0  0  0  0
    9.3720   -5.5782    0.0000 C   0  0  0  0  0  0  0  0  0  0  0  0
    9.3720   -4.3967    0.0000 C   0  0  0  0  0  0  0  0  0  0  0  0
    8.3528   -3.8070    0.0000 N   0  0  0  0  0  0  0  0  0  0  0  0
   10.3952   -6.1689    0.0000 C   0  0  0  0  0  0  0  0  0  0  0  0
   11.4183   -5.5782    0.0000 C   0  0  0  0  0  0  0  0  0  0  0  0
   11.4183   -4.3966    0.0000 C   0  0  0  0  0  0  0  0  0  0  0  0
   12.4393   -3.8086    0.0000 C   0  0  0  0  0  0  0  0  0  0  0  0
   13.4628   -4.3995    0.0000 C   0  0  0  0  0  0  0  0  0  0  0  0
   13.4628   -5.5751    0.0000 C   0  0  0  0  0  0  0  0  0  0  0  0
   12.4459   -6.1714    0.0000 C   0  0  0  0  0  0  0  0  0  0  0  0
   12.4459   -7.3529    0.0000 F   0  0  0  0  0  0  0  0  0  0  0  0
   14.4859   -3.8088    0.0000 Cl  0  0  0  0  0  0  0  0  0  0  0  0
   10.3952   -7.3504    0.0000 N   0  0  0  0  0  0  0  0  0  0  0  0
   11.4183   -7.9411    0.0000 C   0  0  0  0  0  0  0  0  0  0  0  0
   11.4183   -9.1225    0.0000 C   0  0  0  0  0  0  0  0  0  0  0  0
   10.3951   -9.7132    0.0000 N   0  0  0  0  0  0  0  0  0  0  0  0
    9.3720   -9.1225    0.0000 C   0  0  0  0  0  0  0  0  0  0  0  0
    9.3720   -7.9411    0.0000 C   0  0  0  0  0  0  0  0  0  0  0  0
   10.3951  -10.8947    0.0000 C   0  0  0  0  0  0  0  0  0  0  0  0
    9.3719  -11.4854    0.0000 O   0  0  0  0  0  0  0  0  0  0  0  0
   11.4183  -11.4854    0.0000 C   0  0  0  0  0  0  0  0  0  0  0  0
  1  2  1  0  0  0  0
  2  3  2  0  0  0  0
  3  4  1  0  0  0  0
  4  5  2  0  0  0  0
  5  6  1  0  0  0  0
  6  1  2  0  0  0  0
  4  7  1  0  0  0  0
  7  8  1  0  0  0  0
  9  8  2  0  0  0  0
 10  9  1  0  0  0  0
 11 10  2  0  0  0  0
 12 11  1  0  0  0  0
 13 12  2  0  0  0  0
  8 13  1  0  0  0  0
 13 14  1  0  0  0  0
 11 15  1  0  0  0  0
  7 16  1  0  0  0  0
 17 16  1  0  0  0  0
 18 17  1  0  0  0  0
 19 18  1  0  0  0  0
 20 19  1  0  0  0  0
 21 20  1  0  0  0  0
 16 21  1  0  0  0  0
 19 22  1  0  0  0  0
 22 23  2  0  0  0  0
 22 24  1  0  0  0  0
M  END
>  <Work Package>
A

>  <Target ID>
P4_A_012

>  <Smiles>
CC(=O)N1CCN(CC1)C(c2cccnc2)c3ccc(Cl)cc3F

>  <Status >
completed - in test

>  <Target Proposed by>
U of Ghana

>  <Synthesis by>
U of Ghana

>  <logD>
1.797

$$$$
Chemistry 0
  StarDrop          2D                              

 22 24  0  0  0  0  0  0  0  0999 V2000
    7.3297   -4.6386    0.0000 C   0  0  0  0  0  0  0  0  0  0  0  0
    7.3297   -5.8248    0.0000 C   0  0  0  0  0  0  0  0  0  0  0  0
    8.3553   -6.4090    0.0000 C   0  0  0  0  0  0  0  0  0  0  0  0
    9.3720   -5.8195    0.0000 C   0  0  0  0  0  0  0  0  0  0  0  0
    9.3720   -4.6380    0.0000 C   0  0  0  0  0  0  0  0  0  0  0  0
    8.3528   -4.0483    0.0000 N   0  0  0  0  0  0  0  0  0  0  0  0
   10.3952   -6.4102    0.0000 C   0  0  0  0  0  0  0  0  0  0  0  0
   11.4183   -5.8195    0.0000 C   0  0  0  0  0  0  0  0  0  0  0  0
   11.4183   -4.6379    0.0000 C   0  0  0  0  0  0  0  0  0  0  0  0
   12.4393   -4.0499    0.0000 C   0  0  0  0  0  0  0  0  0  0  0  0
   13.4628   -4.6408    0.0000 C   0  0  0  0  0  0  0  0  0  0  0  0
   13.4628   -5.8164    0.0000 C   0  0  0  0  0  0  0  0  0  0  0  0
   12.4459   -6.4127    0.0000 C   0  0  0  0  0  0  0  0  0  0  0  0
   12.4459   -7.5942    0.0000 F   0  0  0  0  0  0  0  0  0  0  0  0
   14.4859   -4.0501    0.0000 Cl  0  0  0  0  0  0  0  0  0  0  0  0
   10.3952   -7.5917    0.0000 N   0  0  0  0  0  0  0  0  0  0  0  0
   11.4183   -8.1824    0.0000 C   0  0  0  0  0  0  0  0  0  0  0  0
   11.4183   -9.3638    0.0000 C   0  0  0  0  0  0  0  0  0  0  0  0
   10.3951   -9.9545    0.0000 N   0  0  0  0  0  0  0  0  0  0  0  0
    9.3720   -9.3638    0.0000 C   0  0  0  0  0  0  0  0  0  0  0  0
    9.3720   -8.1824    0.0000 C   0  0  0  0  0  0  0  0  0  0  0  0
   10.3951  -11.1360    0.0000 C   0  0  0  0  0  0  0  0  0  0  0  0
  1  2  1  0  0  0  0
  2  3  2  0  0  0  0
  3  4  1  0  0  0  0
  4  5  2  0  0  0  0
  5  6  1  0  0  0  0
  6  1  2  0  0  0  0
  4  7  1  0  0  0  0
  7  8  1  0  0  0  0
  9  8  2  0  0  0  0
 10  9  1  0  0  0  0
 11 10  2  0  0  0  0
 12 11  1  0  0  0  0
 13 12  2  0  0  0  0
  8 13  1  0  0  0  0
 13 14  1  0  0  0  0
 11 15  1  0  0  0  0
  7 16  1  0  0  0  0
 17 16  1  0  0  0  0
 18 17  1  0  0  0  0
 19 18  1  0  0  0  0
 20 19  1  0  0  0  0
 21 20  1  0  0  0  0
 16 21  1  0  0  0  0
 19 22  1  0  0  0  0
M  END
>  <Work Package>
A

>  <Target ID>
P4_A_013

>  <Smiles>
CN1CCN(CC1)C(c2cccnc2)c3ccc(Cl)cc3F

>  <Status >
completed - in test

>  <Target Proposed by>
U of Ghana

>  <Synthesis by>
U of Ghana

>  <logD>
2.458

$$$$
Chemistry 0
  StarDrop          2D                              

 29 31  0  0  0  0  0  0  0  0999 V2000
    7.3297   -4.9880    0.0000 C   0  0  0  0  0  0  0  0  0  0  0  0
    7.3297   -6.1742    0.0000 C   0  0  0  0  0  0  0  0  0  0  0  0
    8.3553   -6.7584    0.0000 C   0  0  0  0  0  0  0  0  0  0  0  0
    9.3720   -6.1689    0.0000 C   0  0  0  0  0  0  0  0  0  0  0  0
    9.3720   -4.9874    0.0000 C   0  0  0  0  0  0  0  0  0  0  0  0
    8.3528   -4.3977    0.0000 N   0  0  0  0  0  0  0  0  0  0  0  0
   10.3952   -6.7596    0.0000 C   0  0  0  0  0  0  0  0  0  0  0  0
   11.4183   -6.1689    0.0000 C   0  0  0  0  0  0  0  0  0  0  0  0
   11.4183   -4.9873    0.0000 C   0  0  0  0  0  0  0  0  0  0  0  0
   12.4393   -4.3993    0.0000 C   0  0  0  0  0  0  0  0  0  0  0  0
   13.4628   -4.9902    0.0000 C   0  0  0  0  0  0  0  0  0  0  0  0
   13.4628   -6.1658    0.0000 C   0  0  0  0  0  0  0  0  0  0  0  0
   12.4459   -6.7621    0.0000 C   0  0  0  0  0  0  0  0  0  0  0  0
   12.4459   -7.9436    0.0000 F   0  0  0  0  0  0  0  0  0  0  0  0
   14.4859   -4.3995    0.0000 Cl  0  0  0  0  0  0  0  0  0  0  0  0
   10.3952   -7.9411    0.0000 N   0  0  0  0  0  0  0  0  0  0  0  0
   11.4183   -8.5318    0.0000 C   0  0  0  0  0  0  0  0  0  0  0  0
   11.4183   -9.7132    0.0000 C   0  0  0  0  0  0  0  0  0  0  0  0
   10.3951  -10.3039    0.0000 C   0  0  0  0  0  0  0  0  0  0  0  0
    9.3720   -9.7132    0.0000 C   0  0  0  0  0  0  0  0  0  0  0  0
    9.3720   -8.5318    0.0000 C   0  0  0  0  0  0  0  0  0  0  0  0
   10.3951  -11.4854    0.0000 N   0  0  0  0  0  0  0  0  0  0  0  0
   11.4183  -12.0761    0.0000 C   0  0  0  0  0  0  0  0  0  0  0  0
   11.4183  -13.2576    0.0000 O   0  0  0  0  0  0  0  0  0  0  0  0
   12.4414  -11.4854    0.0000 O   0  0  0  0  0  0  0  0  0  0  0  0
   12.4414  -13.8483    0.0000 C   0  0  0  0  0  0  0  0  0  0  0  0
   12.4414  -15.0298    0.0000 C   0  0  0  0  0  0  0  0  0  0  0  0
   13.4646  -13.2576    0.0000 C   0  0  0  0  0  0  0  0  0  0  0  0
   13.4646  -14.4391    0.0000 C   0  0  0  0  0  0  0  0  0  0  0  0
  1  2  1  0  0  0  0
  2  3  2  0  0  0  0
  3  4  1  0  0  0  0
  4  5  2  0  0  0  0
  5  6  1  0  0  0  0
  6  1  2  0  0  0  0
  4  7  1  0  0  0  0
  7  8  1  0  0  0  0
  9  8  2  0  0  0  0
 10  9  1  0  0  0  0
 11 10  2  0  0  0  0
 12 11  1  0  0  0  0
 13 12  2  0  0  0  0
  8 13  1  0  0  0  0
 13 14  1  0  0  0  0
 11 15  1  0  0  0  0
  7 16  1  0  0  0  0
 17 16  1  0  0  0  0
 18 17  1  0  0  0  0
 19 18  1  0  0  0  0
 20 19  1  0  0  0  0
 21 20  1  0  0  0  0
 16 21  1  0  0  0  0
 19 22  1  0  0  0  0
 22 23  1  0  0  0  0
 23 24  1  0  0  0  0
 23 25  2  0  0  0  0
 24 26  1  0  0  0  0
 26 27  1  0  0  0  0
 26 28  1  0  0  0  0
 26 29  1  0  0  0  0
M  END
>  <Work Package>
A

>  <Target ID>
P4_A_014

>  <Smiles>
CC(C)(C)OC(=O)NC1CCN(CC1)C(c2cccnc2)c3ccc(Cl)cc3F

>  <Status >
completed - in test

>  <Target Proposed by>
U of Ghana

>  <Synthesis by>
U of Ghana

>  <logD>
2.752

$$$$
Chemistry 0
  StarDrop          2D                              

 28 31  0  0  0  0  0  0  0  0999 V2000
    7.3297   -4.9880    0.0000 C   0  0  0  0  0  0  0  0  0  0  0  0
    7.3297   -6.1742    0.0000 C   0  0  0  0  0  0  0  0  0  0  0  0
    8.3553   -6.7584    0.0000 C   0  0  0  0  0  0  0  0  0  0  0  0
    9.3720   -6.1689    0.0000 C   0  0  0  0  0  0  0  0  0  0  0  0
    9.3720   -4.9874    0.0000 C   0  0  0  0  0  0  0  0  0  0  0  0
    8.3528   -4.3977    0.0000 N   0  0  0  0  0  0  0  0  0  0  0  0
   10.3952   -6.7596    0.0000 C   0  0  0  0  0  0  0  0  0  0  0  0
   11.4183   -6.1689    0.0000 C   0  0  0  0  0  0  0  0  0  0  0  0
   11.4183   -4.9873    0.0000 C   0  0  0  0  0  0  0  0  0  0  0  0
   12.4393   -4.3993    0.0000 C   0  0  0  0  0  0  0  0  0  0  0  0
   13.4628   -4.9902    0.0000 C   0  0  0  0  0  0  0  0  0  0  0  0
   13.4628   -6.1658    0.0000 C   0  0  0  0  0  0  0  0  0  0  0  0
   12.4459   -6.7621    0.0000 C   0  0  0  0  0  0  0  0  0  0  0  0
   12.4459   -7.9436    0.0000 F   0  0  0  0  0  0  0  0  0  0  0  0
   14.4859   -4.3995    0.0000 Cl  0  0  0  0  0  0  0  0  0  0  0  0
   10.3952   -7.9411    0.0000 N   0  0  0  0  0  0  0  0  0  0  0  0
   11.4183   -8.5318    0.0000 C   0  0  0  0  0  0  0  0  0  0  0  0
   11.4183   -9.7132    0.0000 C   0  0  0  0  0  0  0  0  0  0  0  0
   10.3951  -10.3039    0.0000 N   0  0  0  0  0  0  0  0  0  0  0  0
    9.3720   -9.7132    0.0000 C   0  0  0  0  0  0  0  0  0  0  0  0
    9.3720   -8.5318    0.0000 C   0  0  0  0  0  0  0  0  0  0  0  0
   10.3951  -11.4854    0.0000 C   0  0  0  0  0  0  0  0  0  0  0  0
   11.4183  -12.0761    0.0000 C   0  0  0  0  0  0  0  0  0  0  0  0
   13.4612  -12.0756    0.0000 C   0  0  0  0  0  0  0  0  0  0  0  0
   12.4417  -11.4857    0.0000 C   0  0  0  0  0  0  0  0  0  0  0  0
   13.4612  -13.2574    0.0000 N   0  0  0  0  0  0  0  0  0  0  0  0
   11.4183  -13.2627    0.0000 C   0  0  0  0  0  0  0  0  0  0  0  0
   12.4443  -13.8471    0.0000 C   0  0  0  0  0  0  0  0  0  0  0  0
  1  2  1  0  0  0  0
  2  3  2  0  0  0  0
  3  4  1  0  0  0  0
  4  5  2  0  0  0  0
  5  6  1  0  0  0  0
  6  1  2  0  0  0  0
  4  7  1  0  0  0  0
  7  8  1  0  0  0  0
  9  8  2  0  0  0  0
 10  9  1  0  0  0  0
 11 10  2  0  0  0  0
 12 11  1  0  0  0  0
 13 12  2  0  0  0  0
  8 13  1  0  0  0  0
 13 14  1  0  0  0  0
 11 15  1  0  0  0  0
  7 16  1  0  0  0  0
 17 16  1  0  0  0  0
 18 17  1  0  0  0  0
 19 18  1  0  0  0  0
 20 19  1  0  0  0  0
 21 20  1  0  0  0  0
 16 21  1  0  0  0  0
 19 22  1  0  0  0  0
 22 23  1  0  0  0  0
 28 26  1  0  0  0  0
 27 28  2  0  0  0  0
 24 25  1  0  0  0  0
 26 24  2  0  0  0  0
 25 23  2  0  0  0  0
 23 27  1  0  0  0  0
M  END
>  <Work Package>
A

>  <Target ID>
P4_A_015

>  <Smiles>
Fc1cc(Cl)ccc1C(N2CCN(Cc3ccncc3)CC2)c4cccnc4

>  <Status >
completed - in test

>  <Target Proposed by>
U of Ghana

>  <Synthesis by>
U of Ghana

>  <logD>
2.842

$$$$
Chemistry 0
  StarDrop          2D                              

 30 33  0  0  0  0  0  0  0  0999 V2000
    7.3297   -3.7969    0.0000 C   0  0  0  0  0  0  0  0  0  0  0  0
    7.3297   -4.9831    0.0000 C   0  0  0  0  0  0  0  0  0  0  0  0
    8.3553   -5.5673    0.0000 C   0  0  0  0  0  0  0  0  0  0  0  0
    9.3720   -4.9778    0.0000 C   0  0  0  0  0  0  0  0  0  0  0  0
    9.3720   -3.7963    0.0000 C   0  0  0  0  0  0  0  0  0  0  0  0
    8.3528   -3.2066    0.0000 N   0  0  0  0  0  0  0  0  0  0  0  0
   10.3952   -5.5685    0.0000 C   0  0  0  0  0  0  0  0  0  0  0  0
   11.4183   -4.9778    0.0000 C   0  0  0  0  0  0  0  0  0  0  0  0
   11.4183   -3.7962    0.0000 C   0  0  0  0  0  0  0  0  0  0  0  0
   12.4393   -3.2082    0.0000 C   0  0  0  0  0  0  0  0  0  0  0  0
   13.4628   -3.7991    0.0000 C   0  0  0  0  0  0  0  0  0  0  0  0
   13.4628   -4.9747    0.0000 C   0  0  0  0  0  0  0  0  0  0  0  0
   12.4459   -5.5710    0.0000 C   0  0  0  0  0  0  0  0  0  0  0  0
   12.4459   -6.7525    0.0000 F   0  0  0  0  0  0  0  0  0  0  0  0
   14.4859   -3.2084    0.0000 Cl  0  0  0  0  0  0  0  0  0  0  0  0
   10.3952   -6.7500    0.0000 N   0  0  0  0  0  0  0  0  0  0  0  0
   11.4183   -7.3407    0.0000 C   0  0  0  0  0  0  0  0  0  0  0  0
   11.5902   -8.5013    0.0000 C   0  0  0  0  0  0  0  0  0  0  0  0
   10.7873   -9.3680    0.0000 N   0  0  0  0  0  0  0  0  0  0  0  0
    9.6133   -9.2855    0.0000 C   0  0  0  0  0  0  0  0  0  0  0  0
    9.2965   -7.1823    0.0000 C   0  0  0  0  0  0  0  0  0  0  0  0
    8.9608   -8.3137    0.0000 C   0  0  0  0  0  0  0  0  0  0  0  0
   11.0931  -10.5092    0.0000 C   0  0  0  0  0  0  0  0  0  0  0  0
   12.2343  -10.8150    0.0000 C   0  0  0  0  0  0  0  0  0  0  0  0
   14.2075  -10.2857    0.0000 C   0  0  0  0  0  0  0  0  0  0  0  0
   13.0700   -9.9798    0.0000 C   0  0  0  0  0  0  0  0  0  0  0  0
   14.5134  -11.4272    0.0000 C   0  0  0  0  0  0  0  0  0  0  0  0
   12.5414  -11.9611    0.0000 C   0  0  0  0  0  0  0  0  0  0  0  0
   13.6837  -12.2601    0.0000 C   0  0  0  0  0  0  0  0  0  0  0  0
   15.6546  -11.7330    0.0000 F   0  0  0  0  0  0  0  0  0  0  0  0
  1  2  1  0  0  0  0
  2  3  2  0  0  0  0
  3  4  1  0  0  0  0
  4  5  2  0  0  0  0
  5  6  1  0  0  0  0
  6  1  2  0  0  0  0
  4  7  1  0  0  0  0
  7  8  1  0  0  0  0
  9  8  2  0  0  0  0
 10  9  1  0  0  0  0
 11 10  2  0  0  0  0
 12 11  1  0  0  0  0
 13 12  2  0  0  0  0
  8 13  1  0  0  0  0
 13 14  1  0  0  0  0
 11 15  1  0  0  0  0
  7 16  1  0  0  0  0
 17 16  1  0  0  0  0
 21 22  1  0  0  0  0
 20 22  1  0  0  0  0
 18 19  1  0  0  0  0
 19 20  1  0  0  0  0
 17 18  1  0  0  0  0
 16 21  1  0  0  0  0
 19 23  1  0  0  0  0
 23 24  1  0  0  0  0
 29 27  1  0  0  0  0
 28 29  2  0  0  0  0
 25 26  1  0  0  0  0
 27 25  2  0  0  0  0
 26 24  2  0  0  0  0
 24 28  1  0  0  0  0
 27 30  1  0  0  0  0
M  END
>  <Work Package>
A

>  <Target ID>
P4_A_016

>  <Smiles>
Fc1ccc(CN2CCCN(CC2)C(c3cccnc3)c4ccc(Cl)cc4F)cc1

>  <Status >
completed - in test

>  <Target Proposed by>
U of Ghana

>  <Synthesis by>
U of Ghana

>  <logD>
3.744

$$$$
Chemistry 0
  StarDrop          2D                              

 28 31  0  0  0  0  0  0  0  0999 V2000
    6.8199   -3.9814    0.0000 C   0  0  0  0  0  0  0  0  0  0  0  0
    6.8199   -5.1676    0.0000 C   0  0  0  0  0  0  0  0  0  0  0  0
    7.8455   -5.7518    0.0000 C   0  0  0  0  0  0  0  0  0  0  0  0
    8.8622   -5.1623    0.0000 C   0  0  0  0  0  0  0  0  0  0  0  0
    8.8622   -3.9808    0.0000 C   0  0  0  0  0  0  0  0  0  0  0  0
    7.8430   -3.3911    0.0000 N   0  0  0  0  0  0  0  0  0  0  0  0
    9.8854   -5.7530    0.0000 C   0  0  0  0  0  0  0  0  0  0  0  0
   10.9085   -5.1623    0.0000 C   0  0  0  0  0  0  0  0  0  0  0  0
   10.9085   -3.9807    0.0000 C   0  0  0  0  0  0  0  0  0  0  0  0
   11.9295   -3.3927    0.0000 C   0  0  0  0  0  0  0  0  0  0  0  0
   12.9530   -3.9836    0.0000 C   0  0  0  0  0  0  0  0  0  0  0  0
   12.9530   -5.1592    0.0000 C   0  0  0  0  0  0  0  0  0  0  0  0
   11.9361   -5.7555    0.0000 C   0  0  0  0  0  0  0  0  0  0  0  0
   11.9361   -6.9370    0.0000 F   0  0  0  0  0  0  0  0  0  0  0  0
   13.9761   -3.3929    0.0000 Cl  0  0  0  0  0  0  0  0  0  0  0  0
    9.8854   -6.9345    0.0000 N   0  0  0  0  0  0  0  0  0  0  0  0
    8.8622   -7.5253    0.0000 C   0  0  0  0  0  0  0  0  0  0  0  0
    8.8622   -8.7067    0.0000 C   0  0  0  0  0  0  0  0  0  0  0  0
    9.8853   -9.2974    0.0000 N   0  0  0  0  0  0  0  0  0  0  0  0
   10.9085   -8.7067    0.0000 C   0  0  0  0  0  0  0  0  0  0  0  0
   10.9085   -7.5252    0.0000 C   0  0  0  0  0  0  0  0  0  0  0  0
    9.8853  -10.4788    0.0000 C   0  0  0  0  0  0  0  0  0  0  0  0
   10.9085  -11.0696    0.0000 O   0  0  0  0  0  0  0  0  0  0  0  0
    8.8622  -11.0696    0.0000 C   0  0  0  0  0  0  0  0  0  0  0  0
    8.7388  -12.2439    0.0000 C   0  0  0  0  0  0  0  0  0  0  0  0
    7.5836  -12.4895    0.0000 C   0  0  0  0  0  0  0  0  0  0  0  0
    6.9932  -11.4668    0.0000 C   0  0  0  0  0  0  0  0  0  0  0  0
    7.7834  -10.5893    0.0000 O   0  0  0  0  0  0  0  0  0  0  0  0
  1  2  1  0  0  0  0
  2  3  2  0  0  0  0
  3  4  1  0  0  0  0
  4  5  2  0  0  0  0
  5  6  1  0  0  0  0
  6  1  2  0  0  0  0
  4  7  1  0  0  0  0
  7  8  1  0  0  0  0
  9  8  2  0  0  0  0
 10  9  1  0  0  0  0
 11 10  2  0  0  0  0
 12 11  1  0  0  0  0
 13 12  2  0  0  0  0
  8 13  1  0  0  0  0
 13 14  1  0  0  0  0
 11 15  1  0  0  0  0
  7 16  1  0  0  0  0
 20 21  1  0  0  0  0
 19 20  1  0  0  0  0
 18 19  1  0  0  0  0
 17 18  1  0  0  0  0
 21 16  1  0  0  0  0
 16 17  1  0  0  0  0
 19 22  1  0  0  0  0
 22 23  2  0  0  0  0
 22 24  1  0  0  0  0
 27 28  1  0  0  0  0
 26 27  2  0  0  0  0
 25 26  1  0  0  0  0
 25 24  2  0  0  0  0
 28 24  1  0  0  0  0
M  END
>  <Work Package>
A

>  <Target ID>
P4_A_017

>  <Smiles>
Fc1cc(Cl)ccc1C(N2CCN(CC2)C(=O)c3occc3)c4cccnc4

>  <Status >
completed - in test

>  <Target Proposed by>
U of Ghana

>  <Synthesis by>
U of Ghana

>  <logD>
2.413

$$$$
Chemistry 0
  StarDrop          2D                              

 26 28  0  0  0  0  0  0  0  0999 V2000
    9.0797   -6.6638    0.0000 C   0  0  0  0  0  0  0  0  0  0  0  0
    9.0797   -7.8500    0.0000 C   0  0  0  0  0  0  0  0  0  0  0  0
   10.1053   -8.4342    0.0000 C   0  0  0  0  0  0  0  0  0  0  0  0
   11.1220   -7.8447    0.0000 C   0  0  0  0  0  0  0  0  0  0  0  0
   11.1220   -6.6632    0.0000 C   0  0  0  0  0  0  0  0  0  0  0  0
   10.1028   -6.0735    0.0000 N   0  0  0  0  0  0  0  0  0  0  0  0
   12.1452   -8.4354    0.0000 C   0  0  0  0  0  0  0  0  0  0  0  0
   13.1683   -7.8447    0.0000 C   0  0  0  0  0  0  0  0  0  0  0  0
   13.1683   -6.6631    0.0000 C   0  0  0  0  0  0  0  0  0  0  0  0
   14.1893   -6.0751    0.0000 C   0  0  0  0  0  0  0  0  0  0  0  0
   15.2128   -6.6660    0.0000 C   0  0  0  0  0  0  0  0  0  0  0  0
   15.2128   -7.8416    0.0000 C   0  0  0  0  0  0  0  0  0  0  0  0
   14.1959   -8.4379    0.0000 C   0  0  0  0  0  0  0  0  0  0  0  0
   14.1959   -9.6194    0.0000 F   0  0  0  0  0  0  0  0  0  0  0  0
   16.2359   -6.0753    0.0000 Cl  0  0  0  0  0  0  0  0  0  0  0  0
   12.1452   -9.6169    0.0000 N   0  0  0  0  0  0  0  0  0  0  0  0
   13.1683  -10.2076    0.0000 C   0  0  0  0  0  0  0  0  0  0  0  0
   13.1683  -11.3890    0.0000 C   0  0  0  0  0  0  0  0  0  0  0  0
   12.1451  -11.9797    0.0000 N   0  0  0  0  0  0  0  0  0  0  0  0
   11.1220  -11.3890    0.0000 C   0  0  0  0  0  0  0  0  0  0  0  0
   11.1220  -10.2076    0.0000 C   0  0  0  0  0  0  0  0  0  0  0  0
   12.1451  -13.1612    0.0000 C   0  0  0  0  0  0  0  0  0  0  0  0
   13.1683  -13.7519    0.0000 O   0  0  0  0  0  0  0  0  0  0  0  0
   11.1219  -13.7519    0.0000 O   0  0  0  0  0  0  0  0  0  0  0  0
   14.1914  -13.1612    0.0000 C   0  0  0  0  0  0  0  0  0  0  0  0
   15.2146  -13.7519    0.0000 C   0  0  0  0  0  0  0  0  0  0  0  0
  1  2  1  0  0  0  0
  2  3  2  0  0  0  0
  3  4  1  0  0  0  0
  4  5  2  0  0  0  0
  5  6  1  0  0  0  0
  6  1  2  0  0  0  0
  4  7  1  0  0  0  0
  7  8  1  0  0  0  0
  9  8  2  0  0  0  0
 10  9  1  0  0  0  0
 11 10  2  0  0  0  0
 12 11  1  0  0  0  0
 13 12  2  0  0  0  0
  8 13  1  0  0  0  0
 13 14  1  0  0  0  0
 11 15  1  0  0  0  0
  7 16  1  0  0  0  0
 17 16  1  0  0  0  0
 18 17  1  0  0  0  0
 19 18  1  0  0  0  0
 20 19  1  0  0  0  0
 21 20  1  0  0  0  0
 16 21  1  0  0  0  0
 19 22  1  0  0  0  0
 22 23  1  0  0  0  0
 22 24  2  0  0  0  0
 23 25  1  0  0  0  0
 25 26  1  0  0  0  0
M  END
>  <Work Package>
A

>  <Target ID>
P4_A_DM43B

>  <Smiles>
CCOC(=O)N1CCN(CC1)C(c2cccnc2)c3ccc(Cl)cc3F

>  <Status >
Completed - in test

>  <Target Proposed by>
UCL

>  <Synthesis by>
UCL

>  <logD>
2.494

$$$$
Chemistry 10
  StarDrop          2D                              

 26 28  0  0  0  0  0  0  0  0999 V2000
    3.6331   -3.6060    0.0000 C   0  0  0  0  0  0  0  0  0  0  0  0
    2.5951   -3.0039    0.0000 Si  0  0  0  0  0  0  0  0  0  0  0  0
    1.5548   -3.6021    0.0000 C   0  0  0  0  0  0  0  0  0  0  0  0
    2.5928   -4.2039    0.0000 C   0  0  0  0  0  0  0  0  0  0  0  0
    2.5973   -1.5031    0.0000 C   0  0  0  0  0  0  0  0  0  0  0  0
    1.2990   -0.7500    0.0000 N   0  0  0  0  0  0  0  0  0  0  0  0
    1.2990    0.7500    0.0000 C   0  0  0  0  0  0  0  0  0  0  0  0
    0.0000    1.5000    0.0000 C   0  0  0  0  0  0  0  0  0  0  0  0
   -1.2990    0.7500    0.0000 N   0  0  0  0  0  0  0  0  0  0  0  0
   -1.2990   -0.7500    0.0000 C   0  0  0  0  0  0  0  0  0  0  0  0
    0.0000   -1.5000    0.0000 C   0  0  0  0  0  0  0  0  0  0  0  0
   -2.5998    1.4986    0.0000 C   0  0  0  0  0  0  0  0  0  0  0  0
   -3.8983    0.7460    0.0000 C   0  0  0  0  0  0  0  0  0  0  0  0
   -3.8989   -0.7540    0.0000 C   0  0  0  0  0  0  0  0  0  0  0  0
   -5.1982   -1.5035    0.0000 C   0  0  0  0  0  0  0  0  0  0  0  0
   -6.4970   -0.7530    0.0000 C   0  0  0  0  0  0  0  0  0  0  0  0
   -6.4964    0.7470    0.0000 N   0  0  0  0  0  0  0  0  0  0  0  0
   -5.1971    1.4965    0.0000 C   0  0  0  0  0  0  0  0  0  0  0  0
   -2.6013    2.9994    0.0000 C   0  0  0  0  0  0  0  0  0  0  0  0
   -3.9027    3.7455    0.0000 C   0  0  0  0  0  0  0  0  0  0  0  0
   -3.9073    5.2455    0.0000 C   0  0  0  0  0  0  0  0  0  0  0  0
   -2.6105    5.9995    0.0000 C   0  0  0  0  0  0  0  0  0  0  0  0
   -2.6142    7.1995    0.0000 Cl  0  0  0  0  0  0  0  0  0  0  0  0
   -1.3092    5.2535    0.0000 C   0  0  0  0  0  0  0  0  0  0  0  0
   -1.3046    3.7535    0.0000 C   0  0  0  0  0  0  0  0  0  0  0  0
   -0.2635    3.1567    0.0000 F   0  0  0  0  0  0  0  0  0  0  0  0
  1  2  1  0  0  0  0
  2  3  1  0  0  0  0
  2  4  1  0  0  0  0
  2  5  1  0  0  0  0
  5  6  1  0  0  0  0
  6  7  1  0  0  0  0
  7  8  1  0  0  0  0
  8  9  1  0  0  0  0
  9 10  1  0  0  0  0
 10 11  1  0  0  0  0
 11  6  1  0  0  0  0
  9 12  1  0  0  0  0
 12 13  1  0  0  0  0
 13 14  2  0  0  0  0
 14 15  1  0  0  0  0
 15 16  2  0  0  0  0
 16 17  1  0  0  0  0
 17 18  2  0  0  0  0
 18 13  1  0  0  0  0
 12 19  1  0  0  0  0
 19 20  2  0  0  0  0
 20 21  1  0  0  0  0
 21 22  2  0  0  0  0
 22 23  1  0  0  0  0
 22 24  1  0  0  0  0
 24 25  2  0  0  0  0
 25 19  1  0  0  0  0
 25 26  1  0  0  0  0
M  END
>  <Work Package>
A

>  <Target ID>
P4_A_FIREWALKER

>  <Smiles>
C[Si](C)(C)CN1CCN(CC1)C(c2cccnc2)c3ccc(Cl)cc3F

>  <Status >
Not Started

>  <Target Proposed by>
Mycetos Github

>  <Synthesis by>
>  <logD>
2.616

$$$$
Chemistry 11
  StarDrop          2D                              

 27 30  0  0  0  0  0  0  0  0999 V2000
    2.3383   -1.3500    0.0000 F   0  0  0  0  0  0  0  0  0  0  0  0
    1.2990   -0.7500    0.0000 C   0  0  0  0  0  0  0  0  0  0  0  0
    1.2990    0.7500    0.0000 C   0  0  0  0  0  0  0  0  0  0  0  0
    0.0000    1.5000    0.0000 C   0  0  0  0  0  0  0  0  0  0  0  0
    0.0000    2.7000    0.0000 Cl  0  0  0  0  0  0  0  0  0  0  0  0
   -1.2990    0.7500    0.0000 C   0  0  0  0  0  0  0  0  0  0  0  0
   -1.2990   -0.7500    0.0000 C   0  0  0  0  0  0  0  0  0  0  0  0
    0.0000   -1.5000    0.0000 C   0  0  0  0  0  0  0  0  0  0  0  0
   -0.0031   -3.0008    0.0000 C   0  0  0  0  0  0  0  0  0  0  0  0
    1.2953   -3.7535    0.0000 N   0  0  0  0  0  0  0  0  0  0  0  0
    1.2948   -5.2535    0.0000 C   0  0  0  0  0  0  0  0  0  0  0  0
    2.5936   -6.0040    0.0000 C   0  0  0  0  0  0  0  0  0  0  0  0
    3.8929   -5.2545    0.0000 N   0  0  0  0  0  0  0  0  0  0  0  0
    3.8935   -3.7545    0.0000 C   0  0  0  0  0  0  0  0  0  0  0  0
    2.5947   -3.0040    0.0000 C   0  0  0  0  0  0  0  0  0  0  0  0
    5.1923   -6.0054    0.0000 C   0  0  0  0  0  0  0  0  0  0  0  0
    5.1942   -7.5054    0.0000 C   0  0  0  0  0  0  0  0  0  0  0  0
    6.4942   -8.2539    0.0000 C   0  0  0  0  0  0  0  0  0  0  0  0
    7.7923   -7.5023    0.0000 N   0  0  0  0  0  0  0  0  0  0  0  0
    7.7905   -6.0023    0.0000 C   0  0  0  0  0  0  0  0  0  0  0  0
    6.4906   -5.2539    0.0000 C   0  0  0  0  0  0  0  0  0  0  0  0
   -1.3039   -3.7494    0.0000 C   0  0  0  0  0  0  0  0  0  0  0  0
   -1.3092   -5.2494    0.0000 C   0  0  0  0  0  0  0  0  0  0  0  0
   -2.6108   -5.9949    0.0000 C   0  0  0  0  0  0  0  0  0  0  0  0
   -3.9072   -5.2404    0.0000 C   0  0  0  0  0  0  0  0  0  0  0  0
   -3.9020   -3.7404    0.0000 N   0  0  0  0  0  0  0  0  0  0  0  0
   -2.6004   -2.9949    0.0000 C   0  0  0  0  0  0  0  0  0  0  0  0
  1  2  1  0  0  0  0
  2  3  2  0  0  0  0
  3  4  1  0  0  0  0
  4  5  1  0  0  0  0
  4  6  2  0  0  0  0
  6  7  1  0  0  0  0
  7  8  2  0  0  0  0
  8  2  1  0  0  0  0
  8  9  1  0  0  0  0
  9 10  1  0  0  0  0
 10 11  1  0  0  0  0
 11 12  1  0  0  0  0
 12 13  1  0  0  0  0
 13 14  1  0  0  0  0
 14 15  1  0  0  0  0
 15 10  1  0  0  0  0
 13 16  1  0  0  0  0
 16 17  2  0  0  0  0
 17 18  1  0  0  0  0
 18 19  2  0  0  0  0
 19 20  1  0  0  0  0
 20 21  2  0  0  0  0
 21 16  1  0  0  0  0
  9 22  1  0  0  0  0
 22 23  2  0  0  0  0
 23 24  1  0  0  0  0
 24 25  2  0  0  0  0
 25 26  1  0  0  0  0
 26 27  2  0  0  0  0
 27 22  1  0  0  0  0
M  END
>  <Work Package>
B

>  <Target ID>
P4_B_001

>  <Smiles>
Fc1cc(Cl)ccc1C(N2CCN(CC2)c3ccncc3)c4cccnc4

>  <Status >
Completed - in test

>  <Target Proposed by>
Mycetos Github

>  <Synthesis by>
UCL

>  <logD>
3.143

$$$$
Chemistry 12
  StarDrop          2D                              

 27 30  0  0  0  0  0  0  0  0999 V2000
    2.3383   -1.3500    0.0000 F   0  0  0  0  0  0  0  0  0  0  0  0
    1.2990   -0.7500    0.0000 C   0  0  0  0  0  0  0  0  0  0  0  0
    1.2990    0.7500    0.0000 C   0  0  0  0  0  0  0  0  0  0  0  0
    0.0000    1.5000    0.0000 C   0  0  0  0  0  0  0  0  0  0  0  0
    0.0000    2.7000    0.0000 Cl  0  0  0  0  0  0  0  0  0  0  0  0
   -1.2990    0.7500    0.0000 C   0  0  0  0  0  0  0  0  0  0  0  0
   -1.2990   -0.7500    0.0000 C   0  0  0  0  0  0  0  0  0  0  0  0
    0.0000   -1.5000    0.0000 C   0  0  0  0  0  0  0  0  0  0  0  0
   -0.0031   -3.0008    0.0000 C   0  0  0  0  0  0  0  0  0  0  0  0
    1.2953   -3.7535    0.0000 N   0  0  0  0  0  0  0  0  0  0  0  0
    1.2948   -5.2535    0.0000 C   0  0  0  0  0  0  0  0  0  0  0  0
    2.5936   -6.0040    0.0000 C   0  0  0  0  0  0  0  0  0  0  0  0
    3.8929   -5.2545    0.0000 N   0  0  0  0  0  0  0  0  0  0  0  0
    3.8935   -3.7545    0.0000 C   0  0  0  0  0  0  0  0  0  0  0  0
    2.5947   -3.0040    0.0000 C   0  0  0  0  0  0  0  0  0  0  0  0
    5.1923   -6.0054    0.0000 C   0  0  0  0  0  0  0  0  0  0  0  0
    5.1942   -7.5054    0.0000 C   0  0  0  0  0  0  0  0  0  0  0  0
    6.4942   -8.2539    0.0000 C   0  0  0  0  0  0  0  0  0  0  0  0
    7.7923   -7.5023    0.0000 C   0  0  0  0  0  0  0  0  0  0  0  0
    7.7905   -6.0023    0.0000 C   0  0  0  0  0  0  0  0  0  0  0  0
    6.4906   -5.2539    0.0000 N   0  0  0  0  0  0  0  0  0  0  0  0
   -1.3039   -3.7494    0.0000 C   0  0  0  0  0  0  0  0  0  0  0  0
   -1.3092   -5.2494    0.0000 C   0  0  0  0  0  0  0  0  0  0  0  0
   -2.6108   -5.9949    0.0000 C   0  0  0  0  0  0  0  0  0  0  0  0
   -3.9072   -5.2404    0.0000 C   0  0  0  0  0  0  0  0  0  0  0  0
   -3.9020   -3.7404    0.0000 N   0  0  0  0  0  0  0  0  0  0  0  0
   -2.6004   -2.9949    0.0000 C   0  0  0  0  0  0  0  0  0  0  0  0
  1  2  1  0  0  0  0
  2  3  2  0  0  0  0
  3  4  1  0  0  0  0
  4  5  1  0  0  0  0
  4  6  2  0  0  0  0
  6  7  1  0  0  0  0
  7  8  2  0  0  0  0
  8  2  1  0  0  0  0
  8  9  1  0  0  0  0
  9 10  1  0  0  0  0
 10 11  1  0  0  0  0
 11 12  1  0  0  0  0
 12 13  1  0  0  0  0
 13 14  1  0  0  0  0
 14 15  1  0  0  0  0
 15 10  1  0  0  0  0
 13 16  1  0  0  0  0
 16 17  2  0  0  0  0
 17 18  1  0  0  0  0
 18 19  2  0  0  0  0
 19 20  1  0  0  0  0
 20 21  2  0  0  0  0
 21 16  1  0  0  0  0
  9 22  1  0  0  0  0
 22 23  2  0  0  0  0
 23 24  1  0  0  0  0
 24 25  2  0  0  0  0
 25 26  1  0  0  0  0
 26 27  2  0  0  0  0
 27 22  1  0  0  0  0
M  END
>  <Work Package>
B

>  <Target ID>
P4_B_002

>  <Smiles>
Fc1cc(Cl)ccc1C(N2CCN(CC2)c3ccccn3)c4cccnc4

>  <Status >
Completed - in test

>  <Target Proposed by>
Mycetos Github

>  <Synthesis by>
UCL

>  <logD>
3.23

$$$$
Chemistry 13
  StarDrop          2D                              

 29 32  0  0  0  0  0  0  0  0999 V2000
    3.6387   -0.8963    0.0000 C   0  0  0  0  0  0  0  0  0  0  0  0
    2.6003   -1.4977    0.0000 O   0  0  0  0  0  0  0  0  0  0  0  0
    1.2990   -0.7500    0.0000 C   0  0  0  0  0  0  0  0  0  0  0  0
    1.2990    0.7500    0.0000 C   0  0  0  0  0  0  0  0  0  0  0  0
    0.0000    1.5000    0.0000 C   0  0  0  0  0  0  0  0  0  0  0  0
   -1.2990    0.7500    0.0000 C   0  0  0  0  0  0  0  0  0  0  0  0
   -1.2990   -0.7500    0.0000 C   0  0  0  0  0  0  0  0  0  0  0  0
    0.0000   -1.5000    0.0000 C   0  0  0  0  0  0  0  0  0  0  0  0
    0.0000   -3.0008    0.0000 N   0  0  0  0  0  0  0  0  0  0  0  0
   -1.2978   -3.7529    0.0000 C   0  0  0  0  0  0  0  0  0  0  0  0
   -1.2955   -5.2529    0.0000 C   0  0  0  0  0  0  0  0  0  0  0  0
    0.0048   -6.0009    0.0000 N   0  0  0  0  0  0  0  0  0  0  0  0
    1.3026   -5.2488    0.0000 C   0  0  0  0  0  0  0  0  0  0  0  0
    1.3002   -3.7488    0.0000 C   0  0  0  0  0  0  0  0  0  0  0  0
    0.0092   -7.5016    0.0000 C   0  0  0  0  0  0  0  0  0  0  0  0
    1.3114   -8.2478    0.0000 C   0  0  0  0  0  0  0  0  0  0  0  0
    2.6096   -7.4963    0.0000 C   0  0  0  0  0  0  0  0  0  0  0  0
    3.9095   -8.2447    0.0000 C   0  0  0  0  0  0  0  0  0  0  0  0
    3.9114   -9.7447    0.0000 C   0  0  0  0  0  0  0  0  0  0  0  0
    2.6132  -10.4963    0.0000 N   0  0  0  0  0  0  0  0  0  0  0  0
    1.3133   -9.7479    0.0000 C   0  0  0  0  0  0  0  0  0  0  0  0
   -1.2886   -8.2554    0.0000 C   0  0  0  0  0  0  0  0  0  0  0  0
   -1.2817   -9.7555    0.0000 C   0  0  0  0  0  0  0  0  0  0  0  0
   -2.5772  -10.5115    0.0000 C   0  0  0  0  0  0  0  0  0  0  0  0
   -3.8797   -9.7676    0.0000 C   0  0  0  0  0  0  0  0  0  0  0  0
   -4.9162  -10.3724    0.0000 Cl  0  0  0  0  0  0  0  0  0  0  0  0
   -3.8867   -8.2676    0.0000 C   0  0  0  0  0  0  0  0  0  0  0  0
   -2.5912   -7.5116    0.0000 C   0  0  0  0  0  0  0  0  0  0  0  0
   -2.5968   -6.3116    0.0000 F   0  0  0  0  0  0  0  0  0  0  0  0
  1  2  1  0  0  0  0
  2  3  1  0  0  0  0
  3  4  2  0  0  0  0
  4  5  1  0  0  0  0
  5  6  2  0  0  0  0
  6  7  1  0  0  0  0
  7  8  2  0  0  0  0
  8  3  1  0  0  0  0
  8  9  1  0  0  0  0
  9 10  1  0  0  0  0
 10 11  1  0  0  0  0
 11 12  1  0  0  0  0
 12 13  1  0  0  0  0
 13 14  1  0  0  0  0
 14  9  1  0  0  0  0
 12 15  1  0  0  0  0
 15 16  1  0  0  0  0
 16 17  2  0  0  0  0
 17 18  1  0  0  0  0
 18 19  2  0  0  0  0
 19 20  1  0  0  0  0
 20 21  2  0  0  0  0
 21 16  1  0  0  0  0
 15 22  1  0  0  0  0
 22 23  2  0  0  0  0
 23 24  1  0  0  0  0
 24 25  2  0  0  0  0
 25 26  1  0  0  0  0
 25 27  1  0  0  0  0
 27 28  2  0  0  0  0
 28 22  1  0  0  0  0
 28 29  1  0  0  0  0
M  END
>  <Work Package>
B

>  <Target ID>
P4_B_003

>  <Smiles>
COc1ccccc1N2CCN(CC2)C(c3cccnc3)c4ccc(Cl)cc4F

>  <Status >
Ongoing

>  <Target Proposed by>
DNDI

>  <Synthesis by>
IMSA

>  <logD>
4.037

$$$$
Chemistry 14
  StarDrop          2D                              

 28 31  0  0  0  0  0  0  0  0999 V2000
    2.3383   -1.3500    0.0000 F   0  0  0  0  0  0  0  0  0  0  0  0
    1.2990   -0.7500    0.0000 C   0  0  0  0  0  0  0  0  0  0  0  0
    1.2990    0.7500    0.0000 C   0  0  0  0  0  0  0  0  0  0  0  0
    0.0000    1.5000    0.0000 C   0  0  0  0  0  0  0  0  0  0  0  0
   -1.2990    0.7500    0.0000 C   0  0  0  0  0  0  0  0  0  0  0  0
   -1.2990   -0.7500    0.0000 C   0  0  0  0  0  0  0  0  0  0  0  0
    0.0000   -1.5000    0.0000 C   0  0  0  0  0  0  0  0  0  0  0  0
    0.0000   -3.0008    0.0000 N   0  0  0  0  0  0  0  0  0  0  0  0
   -1.2978   -3.7529    0.0000 C   0  0  0  0  0  0  0  0  0  0  0  0
   -1.2955   -5.2529    0.0000 C   0  0  0  0  0  0  0  0  0  0  0  0
    0.0048   -6.0009    0.0000 N   0  0  0  0  0  0  0  0  0  0  0  0
    1.3026   -5.2488    0.0000 C   0  0  0  0  0  0  0  0  0  0  0  0
    1.3002   -3.7488    0.0000 C   0  0  0  0  0  0  0  0  0  0  0  0
    0.0092   -7.5016    0.0000 C   0  0  0  0  0  0  0  0  0  0  0  0
    1.3114   -8.2478    0.0000 C   0  0  0  0  0  0  0  0  0  0  0  0
    2.6096   -7.4963    0.0000 C   0  0  0  0  0  0  0  0  0  0  0  0
    3.9095   -8.2447    0.0000 C   0  0  0  0  0  0  0  0  0  0  0  0
    3.9114   -9.7447    0.0000 C   0  0  0  0  0  0  0  0  0  0  0  0
    2.6132  -10.4963    0.0000 N   0  0  0  0  0  0  0  0  0  0  0  0
    1.3133   -9.7479    0.0000 C   0  0  0  0  0  0  0  0  0  0  0  0
   -1.2886   -8.2554    0.0000 C   0  0  0  0  0  0  0  0  0  0  0  0
   -1.2817   -9.7555    0.0000 C   0  0  0  0  0  0  0  0  0  0  0  0
   -2.5772  -10.5115    0.0000 C   0  0  0  0  0  0  0  0  0  0  0  0
   -3.8797   -9.7676    0.0000 C   0  0  0  0  0  0  0  0  0  0  0  0
   -4.9162  -10.3724    0.0000 Cl  0  0  0  0  0  0  0  0  0  0  0  0
   -3.8867   -8.2676    0.0000 C   0  0  0  0  0  0  0  0  0  0  0  0
   -2.5912   -7.5116    0.0000 C   0  0  0  0  0  0  0  0  0  0  0  0
   -2.5968   -6.3116    0.0000 F   0  0  0  0  0  0  0  0  0  0  0  0
  1  2  1  0  0  0  0
  2  3  2  0  0  0  0
  3  4  1  0  0  0  0
  4  5  2  0  0  0  0
  5  6  1  0  0  0  0
  6  7  2  0  0  0  0
  7  2  1  0  0  0  0
  7  8  1  0  0  0  0
  8  9  1  0  0  0  0
  9 10  1  0  0  0  0
 10 11  1  0  0  0  0
 11 12  1  0  0  0  0
 12 13  1  0  0  0  0
 13  8  1  0  0  0  0
 11 14  1  0  0  0  0
 14 15  1  0  0  0  0
 15 16  2  0  0  0  0
 16 17  1  0  0  0  0
 17 18  2  0  0  0  0
 18 19  1  0  0  0  0
 19 20  2  0  0  0  0
 20 15  1  0  0  0  0
 14 21  1  0  0  0  0
 21 22  2  0  0  0  0
 22 23  1  0  0  0  0
 23 24  2  0  0  0  0
 24 25  1  0  0  0  0
 24 26  1  0  0  0  0
 26 27  2  0  0  0  0
 27 21  1  0  0  0  0
 27 28  1  0  0  0  0
M  END
>  <Work Package>
B

>  <Target ID>
P4_B_004

>  <Smiles>
Fc1ccccc1N2CCN(CC2)C(c3cccnc3)c4ccc(Cl)cc4F

>  <Status >
Ongoing

>  <Target Proposed by>
DNDI

>  <Synthesis by>
IMSA

>  <logD>
3.832

$$$$
Chemistry 15
  StarDrop          2D                              

 31 34  0  0  0  0  0  0  0  0999 V2000
    2.3383   -1.3500    0.0000 F   0  0  0  0  0  0  0  0  0  0  0  0
    1.2990   -0.7500    0.0000 C   0  0  0  0  0  0  0  0  0  0  0  0
    1.2990    0.7500    0.0000 C   0  0  0  0  0  0  0  0  0  0  0  0
    0.0000    1.5000    0.0000 C   0  0  0  0  0  0  0  0  0  0  0  0
    0.0000    2.7000    0.0000 Cl  0  0  0  0  0  0  0  0  0  0  0  0
   -1.2990    0.7500    0.0000 C   0  0  0  0  0  0  0  0  0  0  0  0
   -1.2990   -0.7500    0.0000 C   0  0  0  0  0  0  0  0  0  0  0  0
    0.0000   -1.5000    0.0000 C   0  0  0  0  0  0  0  0  0  0  0  0
   -0.0031   -3.0008    0.0000 C   0  0  0  0  0  0  0  0  0  0  0  0
    1.2953   -3.7535    0.0000 N   0  0  0  0  0  0  0  0  0  0  0  0
    1.2948   -5.2535    0.0000 C   0  0  0  0  0  0  0  0  0  0  0  0
    2.5936   -6.0040    0.0000 C   0  0  0  0  0  0  0  0  0  0  0  0
    3.8929   -5.2545    0.0000 N   0  0  0  0  0  0  0  0  0  0  0  0
    3.8935   -3.7545    0.0000 C   0  0  0  0  0  0  0  0  0  0  0  0
    2.5947   -3.0040    0.0000 C   0  0  0  0  0  0  0  0  0  0  0  0
    5.1923   -6.0054    0.0000 C   0  0  0  0  0  0  0  0  0  0  0  0
    6.4906   -5.2539    0.0000 C   0  0  0  0  0  0  0  0  0  0  0  0
    7.7905   -6.0023    0.0000 C   0  0  0  0  0  0  0  0  0  0  0  0
    7.7923   -7.5023    0.0000 C   0  0  0  0  0  0  0  0  0  0  0  0
    6.4942   -8.2539    0.0000 C   0  0  0  0  0  0  0  0  0  0  0  0
    5.1942   -7.5054    0.0000 C   0  0  0  0  0  0  0  0  0  0  0  0
    3.8954   -8.2575    0.0000 C   0  0  0  0  0  0  0  0  0  0  0  0
    3.8962   -9.4575    0.0000 F   0  0  0  0  0  0  0  0  0  0  0  0
    2.8556   -7.6584    0.0000 F   0  0  0  0  0  0  0  0  0  0  0  0
    2.8567   -8.8583    0.0000 F   0  0  0  0  0  0  0  0  0  0  0  0
   -1.3039   -3.7494    0.0000 C   0  0  0  0  0  0  0  0  0  0  0  0
   -1.3092   -5.2494    0.0000 C   0  0  0  0  0  0  0  0  0  0  0  0
   -2.6108   -5.9949    0.0000 C   0  0  0  0  0  0  0  0  0  0  0  0
   -3.9072   -5.2404    0.0000 C   0  0  0  0  0  0  0  0  0  0  0  0
   -3.9020   -3.7404    0.0000 N   0  0  0  0  0  0  0  0  0  0  0  0
   -2.6004   -2.9949    0.0000 C   0  0  0  0  0  0  0  0  0  0  0  0
  1  2  1  0  0  0  0
  2  3  2  0  0  0  0
  3  4  1  0  0  0  0
  4  5  1  0  0  0  0
  4  6  2  0  0  0  0
  6  7  1  0  0  0  0
  7  8  2  0  0  0  0
  8  2  1  0  0  0  0
  8  9  1  0  0  0  0
  9 10  1  0  0  0  0
 10 11  1  0  0  0  0
 11 12  1  0  0  0  0
 12 13  1  0  0  0  0
 13 14  1  0  0  0  0
 14 15  1  0  0  0  0
 15 10  1  0  0  0  0
 13 16  1  0  0  0  0
 16 17  2  0  0  0  0
 17 18  1  0  0  0  0
 18 19  2  0  0  0  0
 19 20  1  0  0  0  0
 20 21  2  0  0  0  0
 21 16  1  0  0  0  0
 21 22  1  0  0  0  0
 22 23  1  0  0  0  0
 22 24  1  0  0  0  0
 22 25  1  0  0  0  0
  9 26  1  0  0  0  0
 26 27  2  0  0  0  0
 27 28  1  0  0  0  0
 28 29  2  0  0  0  0
 29 30  1  0  0  0  0
 30 31  2  0  0  0  0
 31 26  1  0  0  0  0
M  END
>  <Work Package>
B

>  <Target ID>
P4_B_005

>  <Smiles>
Fc1cc(Cl)ccc1C(N2CCN(CC2)c3ccccc3C(F)(F)F)c4cccnc4

>  <Status >
Not Started

>  <Target Proposed by>
DNDI

>  <Synthesis by>
>  <logD>
4.048

$$$$
Chemistry 16
  StarDrop          2D                              

 29 32  0  0  0  0  0  0  0  0999 V2000
    2.5956   -2.7031    0.0000 C   0  0  0  0  0  0  0  0  0  0  0  0
    2.5973   -1.5031    0.0000 O   0  0  0  0  0  0  0  0  0  0  0  0
    1.2990   -0.7500    0.0000 C   0  0  0  0  0  0  0  0  0  0  0  0
    1.2990    0.7500    0.0000 C   0  0  0  0  0  0  0  0  0  0  0  0
    0.0000    1.5000    0.0000 C   0  0  0  0  0  0  0  0  0  0  0  0
   -1.2990    0.7500    0.0000 C   0  0  0  0  0  0  0  0  0  0  0  0
   -1.2990   -0.7500    0.0000 C   0  0  0  0  0  0  0  0  0  0  0  0
    0.0000   -1.5000    0.0000 C   0  0  0  0  0  0  0  0  0  0  0  0
   -2.5987   -1.5004    0.0000 N   0  0  0  0  0  0  0  0  0  0  0  0
   -3.8991   -0.7525    0.0000 C   0  0  0  0  0  0  0  0  0  0  0  0
   -5.1969   -1.5046    0.0000 C   0  0  0  0  0  0  0  0  0  0  0  0
   -5.1945   -3.0046    0.0000 N   0  0  0  0  0  0  0  0  0  0  0  0
   -3.8943   -3.7525    0.0000 C   0  0  0  0  0  0  0  0  0  0  0  0
   -2.5964   -3.0004    0.0000 C   0  0  0  0  0  0  0  0  0  0  0  0
   -6.4920   -3.7588    0.0000 C   0  0  0  0  0  0  0  0  0  0  0  0
   -6.4871   -5.2596    0.0000 C   0  0  0  0  0  0  0  0  0  0  0  0
   -5.1872   -6.0081    0.0000 C   0  0  0  0  0  0  0  0  0  0  0  0
   -5.1853   -7.5081    0.0000 C   0  0  0  0  0  0  0  0  0  0  0  0
   -6.4835   -8.2597    0.0000 C   0  0  0  0  0  0  0  0  0  0  0  0
   -7.7834   -7.5113    0.0000 N   0  0  0  0  0  0  0  0  0  0  0  0
   -7.7853   -6.0113    0.0000 C   0  0  0  0  0  0  0  0  0  0  0  0
   -7.7937   -3.0118    0.0000 C   0  0  0  0  0  0  0  0  0  0  0  0
   -9.0893   -3.7678    0.0000 C   0  0  0  0  0  0  0  0  0  0  0  0
  -10.3919   -3.0238    0.0000 C   0  0  0  0  0  0  0  0  0  0  0  0
  -10.3988   -1.5239    0.0000 C   0  0  0  0  0  0  0  0  0  0  0  0
  -11.4408   -0.9287    0.0000 Cl  0  0  0  0  0  0  0  0  0  0  0  0
   -9.1033   -0.7678    0.0000 C   0  0  0  0  0  0  0  0  0  0  0  0
   -7.8008   -1.5118    0.0000 C   0  0  0  0  0  0  0  0  0  0  0  0
   -6.7644   -0.9069    0.0000 F   0  0  0  0  0  0  0  0  0  0  0  0
  1  2  1  0  0  0  0
  2  3  1  0  0  0  0
  3  4  2  0  0  0  0
  4  5  1  0  0  0  0
  5  6  2  0  0  0  0
  6  7  1  0  0  0  0
  7  8  2  0  0  0  0
  8  3  1  0  0  0  0
  7  9  1  0  0  0  0
  9 10  1  0  0  0  0
 10 11  1  0  0  0  0
 11 12  1  0  0  0  0
 12 13  1  0  0  0  0
 13 14  1  0  0  0  0
 14  9  1  0  0  0  0
 12 15  1  0  0  0  0
 15 16  1  0  0  0  0
 16 17  2  0  0  0  0
 17 18  1  0  0  0  0
 18 19  2  0  0  0  0
 19 20  1  0  0  0  0
 20 21  2  0  0  0  0
 21 16  1  0  0  0  0
 15 22  1  0  0  0  0
 22 23  2  0  0  0  0
 23 24  1  0  0  0  0
 24 25  2  0  0  0  0
 25 26  1  0  0  0  0
 25 27  1  0  0  0  0
 27 28  2  0  0  0  0
 28 22  1  0  0  0  0
 28 29  1  0  0  0  0
M  END
>  <Work Package>
B

>  <Target ID>
P4_B_006

>  <Smiles>
COc1cccc(c1)N2CCN(CC2)C(c3cccnc3)c4ccc(Cl)cc4F

>  <Status >
Not Started

>  <Target Proposed by>
DNDI

>  <Synthesis by>
>  <logD>
3.916

$$$$
Chemistry 17
  StarDrop          2D                              

 28 31  0  0  0  0  0  0  0  0999 V2000
    2.3383   -1.3500    0.0000 F   0  0  0  0  0  0  0  0  0  0  0  0
    1.2990   -0.7500    0.0000 C   0  0  0  0  0  0  0  0  0  0  0  0
    1.2990    0.7500    0.0000 C   0  0  0  0  0  0  0  0  0  0  0  0
    0.0000    1.5000    0.0000 C   0  0  0  0  0  0  0  0  0  0  0  0
   -1.2990    0.7500    0.0000 C   0  0  0  0  0  0  0  0  0  0  0  0
   -1.2990   -0.7500    0.0000 C   0  0  0  0  0  0  0  0  0  0  0  0
    0.0000   -1.5000    0.0000 C   0  0  0  0  0  0  0  0  0  0  0  0
   -2.5987   -1.5004    0.0000 N   0  0  0  0  0  0  0  0  0  0  0  0
   -3.8991   -0.7525    0.0000 C   0  0  0  0  0  0  0  0  0  0  0  0
   -5.1969   -1.5046    0.0000 C   0  0  0  0  0  0  0  0  0  0  0  0
   -5.1945   -3.0046    0.0000 N   0  0  0  0  0  0  0  0  0  0  0  0
   -3.8943   -3.7525    0.0000 C   0  0  0  0  0  0  0  0  0  0  0  0
   -2.5964   -3.0004    0.0000 C   0  0  0  0  0  0  0  0  0  0  0  0
   -6.4920   -3.7588    0.0000 C   0  0  0  0  0  0  0  0  0  0  0  0
   -6.4871   -5.2596    0.0000 C   0  0  0  0  0  0  0  0  0  0  0  0
   -5.1872   -6.0081    0.0000 C   0  0  0  0  0  0  0  0  0  0  0  0
   -5.1853   -7.5081    0.0000 C   0  0  0  0  0  0  0  0  0  0  0  0
   -6.4835   -8.2597    0.0000 C   0  0  0  0  0  0  0  0  0  0  0  0
   -7.7834   -7.5113    0.0000 N   0  0  0  0  0  0  0  0  0  0  0  0
   -7.7853   -6.0113    0.0000 C   0  0  0  0  0  0  0  0  0  0  0  0
   -7.7937   -3.0118    0.0000 C   0  0  0  0  0  0  0  0  0  0  0  0
   -9.0893   -3.7678    0.0000 C   0  0  0  0  0  0  0  0  0  0  0  0
  -10.3919   -3.0238    0.0000 C   0  0  0  0  0  0  0  0  0  0  0  0
  -10.3988   -1.5239    0.0000 C   0  0  0  0  0  0  0  0  0  0  0  0
  -11.4408   -0.9287    0.0000 Cl  0  0  0  0  0  0  0  0  0  0  0  0
   -9.1033   -0.7678    0.0000 C   0  0  0  0  0  0  0  0  0  0  0  0
   -7.8008   -1.5118    0.0000 C   0  0  0  0  0  0  0  0  0  0  0  0
   -6.7644   -0.9069    0.0000 F   0  0  0  0  0  0  0  0  0  0  0  0
  1  2  1  0  0  0  0
  2  3  2  0  0  0  0
  3  4  1  0  0  0  0
  4  5  2  0  0  0  0
  5  6  1  0  0  0  0
  6  7  2  0  0  0  0
  7  2  1  0  0  0  0
  6  8  1  0  0  0  0
  8  9  1  0  0  0  0
  9 10  1  0  0  0  0
 10 11  1  0  0  0  0
 11 12  1  0  0  0  0
 12 13  1  0  0  0  0
 13  8  1  0  0  0  0
 11 14  1  0  0  0  0
 14 15  1  0  0  0  0
 15 16  2  0  0  0  0
 16 17  1  0  0  0  0
 17 18  2  0  0  0  0
 18 19  1  0  0  0  0
 19 20  2  0  0  0  0
 20 15  1  0  0  0  0
 14 21  1  0  0  0  0
 21 22  2  0  0  0  0
 22 23  1  0  0  0  0
 23 24  2  0  0  0  0
 24 25  1  0  0  0  0
 24 26  1  0  0  0  0
 26 27  2  0  0  0  0
 27 21  1  0  0  0  0
 27 28  1  0  0  0  0
M  END
>  <Work Package>
B

>  <Target ID>
P4_B_007

>  <Smiles>
Fc1cccc(c1)N2CCN(CC2)C(c3cccnc3)c4ccc(Cl)cc4F

>  <Status >
Not Started

>  <Target Proposed by>
DNDI

>  <Synthesis by>
>  <logD>
3.722

$$$$
Chemistry 18
  StarDrop          2D                              

 31 34  0  0  0  0  0  0  0  0999 V2000
    2.3383   -1.3500    0.0000 F   0  0  0  0  0  0  0  0  0  0  0  0
    1.2990   -0.7500    0.0000 C   0  0  0  0  0  0  0  0  0  0  0  0
    1.2990    0.7500    0.0000 C   0  0  0  0  0  0  0  0  0  0  0  0
    0.0000    1.5000    0.0000 C   0  0  0  0  0  0  0  0  0  0  0  0
    0.0000    2.7000    0.0000 Cl  0  0  0  0  0  0  0  0  0  0  0  0
   -1.2990    0.7500    0.0000 C   0  0  0  0  0  0  0  0  0  0  0  0
   -1.2990   -0.7500    0.0000 C   0  0  0  0  0  0  0  0  0  0  0  0
    0.0000   -1.5000    0.0000 C   0  0  0  0  0  0  0  0  0  0  0  0
   -0.0031   -3.0008    0.0000 C   0  0  0  0  0  0  0  0  0  0  0  0
    1.2953   -3.7535    0.0000 N   0  0  0  0  0  0  0  0  0  0  0  0
    1.2948   -5.2535    0.0000 C   0  0  0  0  0  0  0  0  0  0  0  0
    2.5936   -6.0040    0.0000 C   0  0  0  0  0  0  0  0  0  0  0  0
    3.8929   -5.2545    0.0000 N   0  0  0  0  0  0  0  0  0  0  0  0
    3.8935   -3.7545    0.0000 C   0  0  0  0  0  0  0  0  0  0  0  0
    2.5947   -3.0040    0.0000 C   0  0  0  0  0  0  0  0  0  0  0  0
    5.1923   -6.0054    0.0000 C   0  0  0  0  0  0  0  0  0  0  0  0
    5.1942   -7.5054    0.0000 C   0  0  0  0  0  0  0  0  0  0  0  0
    6.4942   -8.2539    0.0000 C   0  0  0  0  0  0  0  0  0  0  0  0
    7.7923   -7.5023    0.0000 C   0  0  0  0  0  0  0  0  0  0  0  0
    7.7905   -6.0023    0.0000 C   0  0  0  0  0  0  0  0  0  0  0  0
    6.4906   -5.2539    0.0000 C   0  0  0  0  0  0  0  0  0  0  0  0
    9.0893   -5.2503    0.0000 C   0  0  0  0  0  0  0  0  0  0  0  0
   10.1297   -5.8484    0.0000 F   0  0  0  0  0  0  0  0  0  0  0  0
    9.0875   -4.0503    0.0000 F   0  0  0  0  0  0  0  0  0  0  0  0
   10.1276   -4.6485    0.0000 F   0  0  0  0  0  0  0  0  0  0  0  0
   -1.3039   -3.7494    0.0000 C   0  0  0  0  0  0  0  0  0  0  0  0
   -1.3092   -5.2494    0.0000 C   0  0  0  0  0  0  0  0  0  0  0  0
   -2.6108   -5.9949    0.0000 C   0  0  0  0  0  0  0  0  0  0  0  0
   -3.9072   -5.2404    0.0000 C   0  0  0  0  0  0  0  0  0  0  0  0
   -3.9020   -3.7404    0.0000 N   0  0  0  0  0  0  0  0  0  0  0  0
   -2.6004   -2.9949    0.0000 C   0  0  0  0  0  0  0  0  0  0  0  0
  1  2  1  0  0  0  0
  2  3  2  0  0  0  0
  3  4  1  0  0  0  0
  4  5  1  0  0  0  0
  4  6  2  0  0  0  0
  6  7  1  0  0  0  0
  7  8  2  0  0  0  0
  8  2  1  0  0  0  0
  8  9  1  0  0  0  0
  9 10  1  0  0  0  0
 10 11  1  0  0  0  0
 11 12  1  0  0  0  0
 12 13  1  0  0  0  0
 13 14  1  0  0  0  0
 14 15  1  0  0  0  0
 15 10  1  0  0  0  0
 13 16  1  0  0  0  0
 16 17  2  0  0  0  0
 17 18  1  0  0  0  0
 18 19  2  0  0  0  0
 19 20  1  0  0  0  0
 20 21  2  0  0  0  0
 21 16  1  0  0  0  0
 20 22  1  0  0  0  0
 22 23  1  0  0  0  0
 22 24  1  0  0  0  0
 22 25  1  0  0  0  0
  9 26  1  0  0  0  0
 26 27  2  0  0  0  0
 27 28  1  0  0  0  0
 28 29  2  0  0  0  0
 29 30  1  0  0  0  0
 30 31  2  0  0  0  0
 31 26  1  0  0  0  0
M  END
>  <Work Package>
B

>  <Target ID>
P4_B_008

>  <Smiles>
Fc1cc(Cl)ccc1C(N2CCN(CC2)c3cccc(c3)C(F)(F)F)c4cccnc4

>  <Status >
Ongoing

>  <Target Proposed by>
DNDI

>  <Synthesis by>
KS U of Sydney

>  <logD>
3.947

$$$$
Chemistry 19
  StarDrop          2D                              

 29 32  0  0  0  0  0  0  0  0999 V2000
    2.3383   -1.3500    0.0000 F   0  0  0  0  0  0  0  0  0  0  0  0
    1.2990   -0.7500    0.0000 C   0  0  0  0  0  0  0  0  0  0  0  0
    1.2990    0.7500    0.0000 C   0  0  0  0  0  0  0  0  0  0  0  0
    0.0000    1.5000    0.0000 C   0  0  0  0  0  0  0  0  0  0  0  0
    0.0000    2.7000    0.0000 Cl  0  0  0  0  0  0  0  0  0  0  0  0
   -1.2990    0.7500    0.0000 C   0  0  0  0  0  0  0  0  0  0  0  0
   -1.2990   -0.7500    0.0000 C   0  0  0  0  0  0  0  0  0  0  0  0
    0.0000   -1.5000    0.0000 C   0  0  0  0  0  0  0  0  0  0  0  0
   -0.0031   -3.0008    0.0000 C   0  0  0  0  0  0  0  0  0  0  0  0
    1.2953   -3.7535    0.0000 N   0  0  0  0  0  0  0  0  0  0  0  0
    1.2948   -5.2535    0.0000 C   0  0  0  0  0  0  0  0  0  0  0  0
    2.5936   -6.0040    0.0000 C   0  0  0  0  0  0  0  0  0  0  0  0
    3.8929   -5.2545    0.0000 N   0  0  0  0  0  0  0  0  0  0  0  0
    3.8935   -3.7545    0.0000 C   0  0  0  0  0  0  0  0  0  0  0  0
    2.5947   -3.0040    0.0000 C   0  0  0  0  0  0  0  0  0  0  0  0
    5.1923   -6.0054    0.0000 C   0  0  0  0  0  0  0  0  0  0  0  0
    5.1942   -7.5054    0.0000 C   0  0  0  0  0  0  0  0  0  0  0  0
    6.4942   -8.2539    0.0000 C   0  0  0  0  0  0  0  0  0  0  0  0
    7.7923   -7.5023    0.0000 C   0  0  0  0  0  0  0  0  0  0  0  0
    7.7905   -6.0023    0.0000 C   0  0  0  0  0  0  0  0  0  0  0  0
    6.4906   -5.2539    0.0000 C   0  0  0  0  0  0  0  0  0  0  0  0
    9.0893   -5.2503    0.0000 C   0  0  0  0  0  0  0  0  0  0  0  0
   10.1278   -4.6490    0.0000 N   0  0  0  0  0  0  0  0  0  0  0  0
   -1.3039   -3.7494    0.0000 C   0  0  0  0  0  0  0  0  0  0  0  0
   -1.3092   -5.2494    0.0000 C   0  0  0  0  0  0  0  0  0  0  0  0
   -2.6108   -5.9949    0.0000 C   0  0  0  0  0  0  0  0  0  0  0  0
   -3.9072   -5.2404    0.0000 C   0  0  0  0  0  0  0  0  0  0  0  0
   -3.9020   -3.7404    0.0000 N   0  0  0  0  0  0  0  0  0  0  0  0
   -2.6004   -2.9949    0.0000 C   0  0  0  0  0  0  0  0  0  0  0  0
  1  2  1  0  0  0  0
  2  3  2  0  0  0  0
  3  4  1  0  0  0  0
  4  5  1  0  0  0  0
  4  6  2  0  0  0  0
  6  7  1  0  0  0  0
  7  8  2  0  0  0  0
  8  2  1  0  0  0  0
  8  9  1  0  0  0  0
  9 10  1  0  0  0  0
 10 11  1  0  0  0  0
 11 12  1  0  0  0  0
 12 13  1  0  0  0  0
 13 14  1  0  0  0  0
 14 15  1  0  0  0  0
 15 10  1  0  0  0  0
 13 16  1  0  0  0  0
 16 17  2  0  0  0  0
 17 18  1  0  0  0  0
 18 19  2  0  0  0  0
 19 20  1  0  0  0  0
 20 21  2  0  0  0  0
 21 16  1  0  0  0  0
 20 22  1  0  0  0  0
 22 23  3  0  0  0  0
  9 24  1  0  0  0  0
 24 25  2  0  0  0  0
 25 26  1  0  0  0  0
 26 27  2  0  0  0  0
 27 28  1  0  0  0  0
 28 29  2  0  0  0  0
 29 24  1  0  0  0  0
M  END
>  <Work Package>
B

>  <Target ID>
P4_B_009

>  <Smiles>
Fc1cc(Cl)ccc1C(N2CCN(CC2)c3cccc(c3)C#N)c4cccnc4

>  <Status >
Not Started

>  <Target Proposed by>
DNDI

>  <Synthesis by>
>  <logD>
3.84

$$$$
Chemistry 20
  StarDrop          2D                              

 28 31  0  0  0  0  0  0  0  0999 V2000
    2.3383   -1.3500    0.0000 F   0  0  0  0  0  0  0  0  0  0  0  0
    1.2990   -0.7500    0.0000 C   0  0  0  0  0  0  0  0  0  0  0  0
    1.2990    0.7500    0.0000 C   0  0  0  0  0  0  0  0  0  0  0  0
    0.0000    1.5000    0.0000 C   0  0  0  0  0  0  0  0  0  0  0  0
   -1.2990    0.7500    0.0000 C   0  0  0  0  0  0  0  0  0  0  0  0
   -1.2990   -0.7500    0.0000 C   0  0  0  0  0  0  0  0  0  0  0  0
    0.0000   -1.5000    0.0000 C   0  0  0  0  0  0  0  0  0  0  0  0
   -2.5987    1.5004    0.0000 N   0  0  0  0  0  0  0  0  0  0  0  0
   -2.6012    3.0004    0.0000 C   0  0  0  0  0  0  0  0  0  0  0  0
   -3.9015    3.7484    0.0000 C   0  0  0  0  0  0  0  0  0  0  0  0
   -5.1993    2.9963    0.0000 N   0  0  0  0  0  0  0  0  0  0  0  0
   -5.1969    1.4963    0.0000 C   0  0  0  0  0  0  0  0  0  0  0  0
   -3.8967    0.7484    0.0000 C   0  0  0  0  0  0  0  0  0  0  0  0
   -6.5012    3.7428    0.0000 C   0  0  0  0  0  0  0  0  0  0  0  0
   -7.7985    2.9882    0.0000 C   0  0  0  0  0  0  0  0  0  0  0  0
   -7.7968    1.4882    0.0000 C   0  0  0  0  0  0  0  0  0  0  0  0
   -9.0949    0.7366    0.0000 C   0  0  0  0  0  0  0  0  0  0  0  0
  -10.3948    1.4850    0.0000 C   0  0  0  0  0  0  0  0  0  0  0  0
  -10.3967    2.9850    0.0000 N   0  0  0  0  0  0  0  0  0  0  0  0
   -9.0985    3.7366    0.0000 C   0  0  0  0  0  0  0  0  0  0  0  0
   -6.5051    5.2437    0.0000 C   0  0  0  0  0  0  0  0  0  0  0  0
   -7.8077    5.9877    0.0000 C   0  0  0  0  0  0  0  0  0  0  0  0
   -7.8147    7.4877    0.0000 C   0  0  0  0  0  0  0  0  0  0  0  0
   -6.5191    8.2437    0.0000 C   0  0  0  0  0  0  0  0  0  0  0  0
   -6.5247    9.4437    0.0000 Cl  0  0  0  0  0  0  0  0  0  0  0  0
   -5.2166    7.4998    0.0000 C   0  0  0  0  0  0  0  0  0  0  0  0
   -5.2096    5.9998    0.0000 C   0  0  0  0  0  0  0  0  0  0  0  0
   -4.1676    5.4047    0.0000 F   0  0  0  0  0  0  0  0  0  0  0  0
  1  2  1  0  0  0  0
  2  3  2  0  0  0  0
  3  4  1  0  0  0  0
  4  5  2  0  0  0  0
  5  6  1  0  0  0  0
  6  7  2  0  0  0  0
  7  2  1  0  0  0  0
  5  8  1  0  0  0  0
  8  9  1  0  0  0  0
  9 10  1  0  0  0  0
 10 11  1  0  0  0  0
 11 12  1  0  0  0  0
 12 13  1  0  0  0  0
 13  8  1  0  0  0  0
 11 14  1  0  0  0  0
 14 15  1  0  0  0  0
 15 16  2  0  0  0  0
 16 17  1  0  0  0  0
 17 18  2  0  0  0  0
 18 19  1  0  0  0  0
 19 20  2  0  0  0  0
 20 15  1  0  0  0  0
 14 21  1  0  0  0  0
 21 22  2  0  0  0  0
 22 23  1  0  0  0  0
 23 24  2  0  0  0  0
 24 25  1  0  0  0  0
 24 26  1  0  0  0  0
 26 27  2  0  0  0  0
 27 21  1  0  0  0  0
 27 28  1  0  0  0  0
M  END
>  <Work Package>
B

>  <Target ID>
P4_B_010

>  <Smiles>
Fc1ccc(cc1)N2CCN(CC2)C(c3cccnc3)c4ccc(Cl)cc4F

>  <Status >
Ongoing

>  <Target Proposed by>
DNDI

>  <Synthesis by>
UCL

>  <logD>
3.839

$$$$
Chemistry 21
  StarDrop          2D                              

 31 34  0  0  0  0  0  0  0  0999 V2000
    2.3383   -1.3500    0.0000 F   0  0  0  0  0  0  0  0  0  0  0  0
    1.2990   -0.7500    0.0000 C   0  0  0  0  0  0  0  0  0  0  0  0
    1.2990    0.7500    0.0000 C   0  0  0  0  0  0  0  0  0  0  0  0
    0.0000    1.5000    0.0000 C   0  0  0  0  0  0  0  0  0  0  0  0
    0.0000    2.7000    0.0000 Cl  0  0  0  0  0  0  0  0  0  0  0  0
   -1.2990    0.7500    0.0000 C   0  0  0  0  0  0  0  0  0  0  0  0
   -1.2990   -0.7500    0.0000 C   0  0  0  0  0  0  0  0  0  0  0  0
    0.0000   -1.5000    0.0000 C   0  0  0  0  0  0  0  0  0  0  0  0
   -0.0031   -3.0008    0.0000 C   0  0  0  0  0  0  0  0  0  0  0  0
    1.2953   -3.7535    0.0000 N   0  0  0  0  0  0  0  0  0  0  0  0
    1.2948   -5.2535    0.0000 C   0  0  0  0  0  0  0  0  0  0  0  0
    2.5936   -6.0040    0.0000 C   0  0  0  0  0  0  0  0  0  0  0  0
    3.8929   -5.2545    0.0000 N   0  0  0  0  0  0  0  0  0  0  0  0
    3.8935   -3.7545    0.0000 C   0  0  0  0  0  0  0  0  0  0  0  0
    2.5947   -3.0040    0.0000 C   0  0  0  0  0  0  0  0  0  0  0  0
    5.1923   -6.0054    0.0000 C   0  0  0  0  0  0  0  0  0  0  0  0
    5.1942   -7.5054    0.0000 C   0  0  0  0  0  0  0  0  0  0  0  0
    6.4942   -8.2539    0.0000 C   0  0  0  0  0  0  0  0  0  0  0  0
    7.7923   -7.5023    0.0000 C   0  0  0  0  0  0  0  0  0  0  0  0
    7.7905   -6.0023    0.0000 C   0  0  0  0  0  0  0  0  0  0  0  0
    6.4906   -5.2539    0.0000 C   0  0  0  0  0  0  0  0  0  0  0  0
    9.0930   -8.2511    0.0000 C   0  0  0  0  0  0  0  0  0  0  0  0
    9.0952   -9.4511    0.0000 F   0  0  0  0  0  0  0  0  0  0  0  0
   10.1313   -7.6495    0.0000 F   0  0  0  0  0  0  0  0  0  0  0  0
   10.1332   -8.8494    0.0000 F   0  0  0  0  0  0  0  0  0  0  0  0
   -1.3039   -3.7494    0.0000 C   0  0  0  0  0  0  0  0  0  0  0  0
   -1.3092   -5.2494    0.0000 C   0  0  0  0  0  0  0  0  0  0  0  0
   -2.6108   -5.9949    0.0000 C   0  0  0  0  0  0  0  0  0  0  0  0
   -3.9072   -5.2404    0.0000 C   0  0  0  0  0  0  0  0  0  0  0  0
   -3.9020   -3.7404    0.0000 N   0  0  0  0  0  0  0  0  0  0  0  0
   -2.6004   -2.9949    0.0000 C   0  0  0  0  0  0  0  0  0  0  0  0
  1  2  1  0  0  0  0
  2  3  2  0  0  0  0
  3  4  1  0  0  0  0
  4  5  1  0  0  0  0
  4  6  2  0  0  0  0
  6  7  1  0  0  0  0
  7  8  2  0  0  0  0
  8  2  1  0  0  0  0
  8  9  1  0  0  0  0
  9 10  1  0  0  0  0
 10 11  1  0  0  0  0
 11 12  1  0  0  0  0
 12 13  1  0  0  0  0
 13 14  1  0  0  0  0
 14 15  1  0  0  0  0
 15 10  1  0  0  0  0
 13 16  1  0  0  0  0
 16 17  2  0  0  0  0
 17 18  1  0  0  0  0
 18 19  2  0  0  0  0
 19 20  1  0  0  0  0
 20 21  2  0  0  0  0
 21 16  1  0  0  0  0
 19 22  1  0  0  0  0
 22 23  1  0  0  0  0
 22 24  1  0  0  0  0
 22 25  1  0  0  0  0
  9 26  1  0  0  0  0
 26 27  2  0  0  0  0
 27 28  1  0  0  0  0
 28 29  2  0  0  0  0
 29 30  1  0  0  0  0
 30 31  2  0  0  0  0
 31 26  1  0  0  0  0
M  END
>  <Work Package>
B

>  <Target ID>
P4_B_011

>  <Smiles>
Fc1cc(Cl)ccc1C(N2CCN(CC2)c3ccc(cc3)C(F)(F)F)c4cccnc4

>  <Status >
Ongoing

>  <Target Proposed by>
DNDI

>  <Synthesis by>
KS U of Sydney

>  <logD>
4.019

$$$$
Chemistry 22
  StarDrop          2D                              

 29 32  0  0  0  0  0  0  0  0999 V2000
    2.3383   -1.3500    0.0000 F   0  0  0  0  0  0  0  0  0  0  0  0
    1.2990   -0.7500    0.0000 C   0  0  0  0  0  0  0  0  0  0  0  0
    1.2990    0.7500    0.0000 C   0  0  0  0  0  0  0  0  0  0  0  0
    0.0000    1.5000    0.0000 C   0  0  0  0  0  0  0  0  0  0  0  0
    0.0000    2.7000    0.0000 Cl  0  0  0  0  0  0  0  0  0  0  0  0
   -1.2990    0.7500    0.0000 C   0  0  0  0  0  0  0  0  0  0  0  0
   -1.2990   -0.7500    0.0000 C   0  0  0  0  0  0  0  0  0  0  0  0
    0.0000   -1.5000    0.0000 C   0  0  0  0  0  0  0  0  0  0  0  0
   -0.0031   -3.0008    0.0000 C   0  0  0  0  0  0  0  0  0  0  0  0
    1.2953   -3.7535    0.0000 N   0  0  0  0  0  0  0  0  0  0  0  0
    1.2948   -5.2535    0.0000 C   0  0  0  0  0  0  0  0  0  0  0  0
    2.5936   -6.0040    0.0000 C   0  0  0  0  0  0  0  0  0  0  0  0
    3.8929   -5.2545    0.0000 N   0  0  0  0  0  0  0  0  0  0  0  0
    3.8935   -3.7545    0.0000 C   0  0  0  0  0  0  0  0  0  0  0  0
    2.5947   -3.0040    0.0000 C   0  0  0  0  0  0  0  0  0  0  0  0
    5.1923   -6.0054    0.0000 C   0  0  0  0  0  0  0  0  0  0  0  0
    5.1942   -7.5054    0.0000 C   0  0  0  0  0  0  0  0  0  0  0  0
    6.4942   -8.2539    0.0000 C   0  0  0  0  0  0  0  0  0  0  0  0
    7.7923   -7.5023    0.0000 C   0  0  0  0  0  0  0  0  0  0  0  0
    7.7905   -6.0023    0.0000 C   0  0  0  0  0  0  0  0  0  0  0  0
    6.4906   -5.2539    0.0000 C   0  0  0  0  0  0  0  0  0  0  0  0
    9.0930   -8.2511    0.0000 C   0  0  0  0  0  0  0  0  0  0  0  0
   10.1329   -8.8498    0.0000 N   0  0  0  0  0  0  0  0  0  0  0  0
   -1.3039   -3.7494    0.0000 C   0  0  0  0  0  0  0  0  0  0  0  0
   -1.3092   -5.2494    0.0000 C   0  0  0  0  0  0  0  0  0  0  0  0
   -2.6108   -5.9949    0.0000 C   0  0  0  0  0  0  0  0  0  0  0  0
   -3.9072   -5.2404    0.0000 C   0  0  0  0  0  0  0  0  0  0  0  0
   -3.9020   -3.7404    0.0000 N   0  0  0  0  0  0  0  0  0  0  0  0
   -2.6004   -2.9949    0.0000 C   0  0  0  0  0  0  0  0  0  0  0  0
  1  2  1  0  0  0  0
  2  3  2  0  0  0  0
  3  4  1  0  0  0  0
  4  5  1  0  0  0  0
  4  6  2  0  0  0  0
  6  7  1  0  0  0  0
  7  8  2  0  0  0  0
  8  2  1  0  0  0  0
  8  9  1  0  0  0  0
  9 10  1  0  0  0  0
 10 11  1  0  0  0  0
 11 12  1  0  0  0  0
 12 13  1  0  0  0  0
 13 14  1  0  0  0  0
 14 15  1  0  0  0  0
 15 10  1  0  0  0  0
 13 16  1  0  0  0  0
 16 17  2  0  0  0  0
 17 18  1  0  0  0  0
 18 19  2  0  0  0  0
 19 20  1  0  0  0  0
 20 21  2  0  0  0  0
 21 16  1  0  0  0  0
 19 22  1  0  0  0  0
 22 23  3  0  0  0  0
  9 24  1  0  0  0  0
 24 25  2  0  0  0  0
 25 26  1  0  0  0  0
 26 27  2  0  0  0  0
 27 28  1  0  0  0  0
 28 29  2  0  0  0  0
 29 24  1  0  0  0  0
M  END
>  <Work Package>
B

>  <Target ID>
P4_B_012

>  <Smiles>
Fc1cc(Cl)ccc1C(N2CCN(CC2)c3ccc(cc3)C#N)c4cccnc4

>  <Status >
Ongoing

>  <Target Proposed by>
DNDI

>  <Synthesis by>
KS U of Sydney

>  <logD>
3.904

$$$$
Chemistry 23
  StarDrop          2D                              

 29 32  0  0  0  0  0  0  0  0999 V2000
    2.5956   -2.7031    0.0000 C   0  0  0  0  0  0  0  0  0  0  0  0
    2.5973   -1.5031    0.0000 O   0  0  0  0  0  0  0  0  0  0  0  0
    1.2990   -0.7500    0.0000 C   0  0  0  0  0  0  0  0  0  0  0  0
    1.2990    0.7500    0.0000 C   0  0  0  0  0  0  0  0  0  0  0  0
    0.0000    1.5000    0.0000 C   0  0  0  0  0  0  0  0  0  0  0  0
   -1.2990    0.7500    0.0000 C   0  0  0  0  0  0  0  0  0  0  0  0
   -1.2990   -0.7500    0.0000 C   0  0  0  0  0  0  0  0  0  0  0  0
    0.0000   -1.5000    0.0000 C   0  0  0  0  0  0  0  0  0  0  0  0
   -2.5987    1.5004    0.0000 N   0  0  0  0  0  0  0  0  0  0  0  0
   -2.6012    3.0004    0.0000 C   0  0  0  0  0  0  0  0  0  0  0  0
   -3.9015    3.7484    0.0000 C   0  0  0  0  0  0  0  0  0  0  0  0
   -5.1993    2.9963    0.0000 N   0  0  0  0  0  0  0  0  0  0  0  0
   -5.1969    1.4963    0.0000 C   0  0  0  0  0  0  0  0  0  0  0  0
   -3.8967    0.7484    0.0000 C   0  0  0  0  0  0  0  0  0  0  0  0
   -6.5012    3.7428    0.0000 C   0  0  0  0  0  0  0  0  0  0  0  0
   -7.7985    2.9882    0.0000 C   0  0  0  0  0  0  0  0  0  0  0  0
   -7.7968    1.4882    0.0000 C   0  0  0  0  0  0  0  0  0  0  0  0
   -9.0949    0.7366    0.0000 C   0  0  0  0  0  0  0  0  0  0  0  0
  -10.3948    1.4850    0.0000 C   0  0  0  0  0  0  0  0  0  0  0  0
  -10.3967    2.9850    0.0000 N   0  0  0  0  0  0  0  0  0  0  0  0
   -9.0985    3.7366    0.0000 C   0  0  0  0  0  0  0  0  0  0  0  0
   -6.5051    5.2437    0.0000 C   0  0  0  0  0  0  0  0  0  0  0  0
   -7.8077    5.9877    0.0000 C   0  0  0  0  0  0  0  0  0  0  0  0
   -7.8147    7.4877    0.0000 C   0  0  0  0  0  0  0  0  0  0  0  0
   -6.5191    8.2437    0.0000 C   0  0  0  0  0  0  0  0  0  0  0  0
   -6.5247    9.4437    0.0000 Cl  0  0  0  0  0  0  0  0  0  0  0  0
   -5.2166    7.4998    0.0000 C   0  0  0  0  0  0  0  0  0  0  0  0
   -5.2096    5.9998    0.0000 C   0  0  0  0  0  0  0  0  0  0  0  0
   -4.1676    5.4047    0.0000 F   0  0  0  0  0  0  0  0  0  0  0  0
  1  2  1  0  0  0  0
  2  3  1  0  0  0  0
  3  4  2  0  0  0  0
  4  5  1  0  0  0  0
  5  6  2  0  0  0  0
  6  7  1  0  0  0  0
  7  8  2  0  0  0  0
  8  3  1  0  0  0  0
  6  9  1  0  0  0  0
  9 10  1  0  0  0  0
 10 11  1  0  0  0  0
 11 12  1  0  0  0  0
 12 13  1  0  0  0  0
 13 14  1  0  0  0  0
 14  9  1  0  0  0  0
 12 15  1  0  0  0  0
 15 16  1  0  0  0  0
 16 17  2  0  0  0  0
 17 18  1  0  0  0  0
 18 19  2  0  0  0  0
 19 20  1  0  0  0  0
 20 21  2  0  0  0  0
 21 16  1  0  0  0  0
 15 22  1  0  0  0  0
 22 23  2  0  0  0  0
 23 24  1  0  0  0  0
 24 25  2  0  0  0  0
 25 26  1  0  0  0  0
 25 27  1  0  0  0  0
 27 28  2  0  0  0  0
 28 22  1  0  0  0  0
 28 29  1  0  0  0  0
M  END
>  <Work Package>
B

>  <Target ID>
P4_B_013

>  <Smiles>
COc1ccc(cc1)N2CCN(CC2)C(c3cccnc3)c4ccc(Cl)cc4F

>  <Status >
Completed - in test

>  <Target Proposed by>
DNDI

>  <Synthesis by>
UCL

>  <logD>
3.994

$$$$
Chemistry 24
  StarDrop          2D                              

 26 29  0  0  0  0  0  0  0  0999 V2000
    2.3383   -1.3500    0.0000 F   0  0  0  0  0  0  0  0  0  0  0  0
    1.2990   -0.7500    0.0000 C   0  0  0  0  0  0  0  0  0  0  0  0
    1.2990    0.7500    0.0000 C   0  0  0  0  0  0  0  0  0  0  0  0
    0.0000    1.5000    0.0000 C   0  0  0  0  0  0  0  0  0  0  0  0
    0.0000    2.7000    0.0000 Cl  0  0  0  0  0  0  0  0  0  0  0  0
   -1.2990    0.7500    0.0000 C   0  0  0  0  0  0  0  0  0  0  0  0
   -1.2990   -0.7500    0.0000 C   0  0  0  0  0  0  0  0  0  0  0  0
    0.0000   -1.5000    0.0000 C   0  0  0  0  0  0  0  0  0  0  0  0
   -0.0031   -3.0008    0.0000 C   0  0  0  0  0  0  0  0  0  0  0  0
    1.2953   -3.7535    0.0000 N   0  0  0  0  0  0  0  0  0  0  0  0
    1.2948   -5.2535    0.0000 C   0  0  0  0  0  0  0  0  0  0  0  0
    2.5936   -6.0040    0.0000 C   0  0  0  0  0  0  0  0  0  0  0  0
    3.8929   -5.2545    0.0000 N   0  0  0  0  0  0  0  0  0  0  0  0
    3.8935   -3.7545    0.0000 C   0  0  0  0  0  0  0  0  0  0  0  0
    2.5947   -3.0040    0.0000 C   0  0  0  0  0  0  0  0  0  0  0  0
    5.1923   -6.0054    0.0000 C   0  0  0  0  0  0  0  0  0  0  0  0
    5.3320   -7.4861    0.0000 O   0  0  0  0  0  0  0  0  0  0  0  0
    6.7996   -7.7962    0.0000 C   0  0  0  0  0  0  0  0  0  0  0  0
    7.5480   -6.4962    0.0000 C   0  0  0  0  0  0  0  0  0  0  0  0
    6.5430   -5.3827    0.0000 N   0  0  0  0  0  0  0  0  0  0  0  0
   -1.3039   -3.7494    0.0000 C   0  0  0  0  0  0  0  0  0  0  0  0
   -1.3092   -5.2494    0.0000 C   0  0  0  0  0  0  0  0  0  0  0  0
   -2.6108   -5.9949    0.0000 C   0  0  0  0  0  0  0  0  0  0  0  0
   -3.9072   -5.2404    0.0000 C   0  0  0  0  0  0  0  0  0  0  0  0
   -3.9020   -3.7404    0.0000 N   0  0  0  0  0  0  0  0  0  0  0  0
   -2.6004   -2.9949    0.0000 C   0  0  0  0  0  0  0  0  0  0  0  0
  1  2  1  0  0  0  0
  2  3  2  0  0  0  0
  3  4  1  0  0  0  0
  4  5  1  0  0  0  0
  4  6  2  0  0  0  0
  6  7  1  0  0  0  0
  7  8  2  0  0  0  0
  8  2  1  0  0  0  0
  8  9  1  0  0  0  0
  9 10  1  0  0  0  0
 10 11  1  0  0  0  0
 11 12  1  0  0  0  0
 12 13  1  0  0  0  0
 13 14  1  0  0  0  0
 14 15  1  0  0  0  0
 15 10  1  0  0  0  0
 13 16  1  0  0  0  0
 16 17  1  0  0  0  0
 17 18  1  0  0  0  0
 18 19  2  0  0  0  0
 19 20  1  0  0  0  0
 20 16  2  0  0  0  0
  9 21  1  0  0  0  0
 21 22  2  0  0  0  0
 22 23  1  0  0  0  0
 23 24  2  0  0  0  0
 24 25  1  0  0  0  0
 25 26  2  0  0  0  0
 26 21  1  0  0  0  0
M  END
>  <Work Package>
B

>  <Target ID>
P4_B_014

>  <Smiles>
Fc1cc(Cl)ccc1C(N2CCN(CC2)c3occn3)c4cccnc4

>  <Status >
Not Started

>  <Target Proposed by>
DNDI

>  <Synthesis by>
>  <logD>
3.187

$$$$
Chemistry 25
  StarDrop          2D                              

 27 30  0  0  0  0  0  0  0  0999 V2000
    2.3383   -1.3500    0.0000 F   0  0  0  0  0  0  0  0  0  0  0  0
    1.2990   -0.7500    0.0000 C   0  0  0  0  0  0  0  0  0  0  0  0
    1.2990    0.7500    0.0000 C   0  0  0  0  0  0  0  0  0  0  0  0
    0.0000    1.5000    0.0000 C   0  0  0  0  0  0  0  0  0  0  0  0
    0.0000    2.7000    0.0000 Cl  0  0  0  0  0  0  0  0  0  0  0  0
   -1.2990    0.7500    0.0000 C   0  0  0  0  0  0  0  0  0  0  0  0
   -1.2990   -0.7500    0.0000 C   0  0  0  0  0  0  0  0  0  0  0  0
    0.0000   -1.5000    0.0000 C   0  0  0  0  0  0  0  0  0  0  0  0
   -0.0031   -3.0008    0.0000 C   0  0  0  0  0  0  0  0  0  0  0  0
    1.2953   -3.7535    0.0000 N   0  0  0  0  0  0  0  0  0  0  0  0
    1.2948   -5.2535    0.0000 C   0  0  0  0  0  0  0  0  0  0  0  0
    2.5936   -6.0040    0.0000 C   0  0  0  0  0  0  0  0  0  0  0  0
    3.8929   -5.2545    0.0000 N   0  0  0  0  0  0  0  0  0  0  0  0
    3.8935   -3.7545    0.0000 C   0  0  0  0  0  0  0  0  0  0  0  0
    2.5947   -3.0040    0.0000 C   0  0  0  0  0  0  0  0  0  0  0  0
    5.1923   -6.0054    0.0000 C   0  0  0  0  0  0  0  0  0  0  0  0
    5.1942   -7.5054    0.0000 C   0  0  0  0  0  0  0  0  0  0  0  0
    6.4942   -8.2539    0.0000 C   0  0  0  0  0  0  0  0  0  0  0  0
    7.7923   -7.5023    0.0000 C   0  0  0  0  0  0  0  0  0  0  0  0
    7.7905   -6.0023    0.0000 N   0  0  0  0  0  0  0  0  0  0  0  0
    6.4906   -5.2539    0.0000 C   0  0  0  0  0  0  0  0  0  0  0  0
   -1.3039   -3.7494    0.0000 C   0  0  0  0  0  0  0  0  0  0  0  0
   -1.3092   -5.2494    0.0000 C   0  0  0  0  0  0  0  0  0  0  0  0
   -2.6108   -5.9949    0.0000 C   0  0  0  0  0  0  0  0  0  0  0  0
   -3.9072   -5.2404    0.0000 C   0  0  0  0  0  0  0  0  0  0  0  0
   -3.9020   -3.7404    0.0000 N   0  0  0  0  0  0  0  0  0  0  0  0
   -2.6004   -2.9949    0.0000 C   0  0  0  0  0  0  0  0  0  0  0  0
  1  2  1  0  0  0  0
  2  3  2  0  0  0  0
  3  4  1  0  0  0  0
  4  5  1  0  0  0  0
  4  6  2  0  0  0  0
  6  7  1  0  0  0  0
  7  8  2  0  0  0  0
  8  2  1  0  0  0  0
  8  9  1  0  0  0  0
  9 10  1  0  0  0  0
 10 11  1  0  0  0  0
 11 12  1  0  0  0  0
 12 13  1  0  0  0  0
 13 14  1  0  0  0  0
 14 15  1  0  0  0  0
 15 10  1  0  0  0  0
 13 16  1  0  0  0  0
 16 17  2  0  0  0  0
 17 18  1  0  0  0  0
 18 19  2  0  0  0  0
 19 20  1  0  0  0  0
 20 21  2  0  0  0  0
 21 16  1  0  0  0  0
  9 22  1  0  0  0  0
 22 23  2  0  0  0  0
 23 24  1  0  0  0  0
 24 25  2  0  0  0  0
 25 26  1  0  0  0  0
 26 27  2  0  0  0  0
 27 22  1  0  0  0  0
M  END
>  <Work Package>
B

>  <Target ID>
P4_B_015

>  <Smiles>
Fc1cc(Cl)ccc1C(N2CCN(CC2)c3cccnc3)c4cccnc4

>  <Status >
Not Started

>  <Target Proposed by>
DNDI

>  <Synthesis by>
>  <logD>
3.144

$$$$
Chemistry 0
  StarDrop          2D                              

 29 32  0  0  0  0  0  0  0  0999 V2000
    7.3297   -3.7969    0.0000 C   0  0  0  0  0  0  0  0  0  0  0  0
    7.3297   -4.9831    0.0000 C   0  0  0  0  0  0  0  0  0  0  0  0
    8.3553   -5.5673    0.0000 C   0  0  0  0  0  0  0  0  0  0  0  0
    9.3720   -4.9778    0.0000 C   0  0  0  0  0  0  0  0  0  0  0  0
    9.3720   -3.7963    0.0000 C   0  0  0  0  0  0  0  0  0  0  0  0
    8.3528   -3.2066    0.0000 N   0  0  0  0  0  0  0  0  0  0  0  0
   10.3952   -5.5685    0.0000 C   0  0  0  0  0  0  0  0  0  0  0  0
   11.4183   -4.9778    0.0000 C   0  0  0  0  0  0  0  0  0  0  0  0
   11.4183   -3.7962    0.0000 C   0  0  0  0  0  0  0  0  0  0  0  0
   12.4393   -3.2082    0.0000 C   0  0  0  0  0  0  0  0  0  0  0  0
   13.4628   -3.7991    0.0000 C   0  0  0  0  0  0  0  0  0  0  0  0
   13.4628   -4.9747    0.0000 C   0  0  0  0  0  0  0  0  0  0  0  0
   12.4459   -5.5710    0.0000 C   0  0  0  0  0  0  0  0  0  0  0  0
   12.4459   -6.7525    0.0000 F   0  0  0  0  0  0  0  0  0  0  0  0
   14.4859   -3.2084    0.0000 Cl  0  0  0  0  0  0  0  0  0  0  0  0
   10.3952   -6.7500    0.0000 N   0  0  0  0  0  0  0  0  0  0  0  0
   11.4183   -7.3407    0.0000 C   0  0  0  0  0  0  0  0  0  0  0  0
   11.4183   -8.5221    0.0000 C   0  0  0  0  0  0  0  0  0  0  0  0
   10.3951   -9.1128    0.0000 N   0  0  0  0  0  0  0  0  0  0  0  0
    9.3720   -8.5221    0.0000 C   0  0  0  0  0  0  0  0  0  0  0  0
    9.3720   -7.3407    0.0000 C   0  0  0  0  0  0  0  0  0  0  0  0
   10.3951  -10.2942    0.0000 C   0  0  0  0  0  0  0  0  0  0  0  0
   11.4171  -12.0632    0.0000 C   0  0  0  0  0  0  0  0  0  0  0  0
   11.4182  -10.8853    0.0000 C   0  0  0  0  0  0  0  0  0  0  0  0
   10.3936  -12.6541    0.0000 C   0  0  0  0  0  0  0  0  0  0  0  0
    9.3675  -10.8875    0.0000 C   0  0  0  0  0  0  0  0  0  0  0  0
    9.3744  -12.0682    0.0000 C   0  0  0  0  0  0  0  0  0  0  0  0
    8.3444  -10.2967    0.0000 C   0  0  0  0  0  0  0  0  0  0  0  0
    7.3215   -9.7062    0.0000 N   0  0  0  0  0  0  0  0  0  0  0  0
  1  2  1  0  0  0  0
  2  3  2  0  0  0  0
  3  4  1  0  0  0  0
  4  5  2  0  0  0  0
  5  6  1  0  0  0  0
  6  1  2  0  0  0  0
  4  7  1  0  0  0  0
  7  8  1  0  0  0  0
  9  8  2  0  0  0  0
 10  9  1  0  0  0  0
 11 10  2  0  0  0  0
 12 11  1  0  0  0  0
 13 12  2  0  0  0  0
  8 13  1  0  0  0  0
 13 14  1  0  0  0  0
 11 15  1  0  0  0  0
  7 16  1  0  0  0  0
 17 16  1  0  0  0  0
 18 17  1  0  0  0  0
 19 18  1  0  0  0  0
 20 19  1  0  0  0  0
 21 20  1  0  0  0  0
 16 21  1  0  0  0  0
 19 22  1  0  0  0  0
 27 25  1  0  0  0  0
 26 27  2  0  0  0  0
 23 24  1  0  0  0  0
 25 23  2  0  0  0  0
 24 22  2  0  0  0  0
 22 26  1  0  0  0  0
 28 29  3  0  0  0  0
 26 28  1  0  0  0  0
M  END
>  <Work Package>
B

>  <Target ID>
P4_B_016

>  <Smiles>
Fc1cc(Cl)ccc1C(N2CCN(CC2)c3ccccc3C#N)c4cccnc4

>  <Status >
completed - in test

>  <Target Proposed by>
U of Ghana

>  <Synthesis by>
U of Ghana

>  <logD>
3.941

$$$$
Chemistry 0
  StarDrop          2D                              

 27 30  0  0  0  0  0  0  0  0999 V2000
    7.3297   -3.7981    0.0000 C   0  0  0  0  0  0  0  0  0  0  0  0
    7.3297   -4.9843    0.0000 C   0  0  0  0  0  0  0  0  0  0  0  0
    8.3553   -5.5685    0.0000 C   0  0  0  0  0  0  0  0  0  0  0  0
    9.3720   -4.9790    0.0000 C   0  0  0  0  0  0  0  0  0  0  0  0
    9.3720   -3.7975    0.0000 C   0  0  0  0  0  0  0  0  0  0  0  0
    8.3528   -3.2078    0.0000 N   0  0  0  0  0  0  0  0  0  0  0  0
   10.3952   -5.5697    0.0000 C   0  0  0  0  0  0  0  0  0  0  0  0
   11.4183   -4.9790    0.0000 C   0  0  0  0  0  0  0  0  0  0  0  0
   11.4183   -3.7974    0.0000 C   0  0  0  0  0  0  0  0  0  0  0  0
   12.4393   -3.2094    0.0000 C   0  0  0  0  0  0  0  0  0  0  0  0
   13.4628   -3.8003    0.0000 C   0  0  0  0  0  0  0  0  0  0  0  0
   13.4628   -4.9759    0.0000 C   0  0  0  0  0  0  0  0  0  0  0  0
   12.4459   -5.5722    0.0000 C   0  0  0  0  0  0  0  0  0  0  0  0
   12.4459   -6.7537    0.0000 F   0  0  0  0  0  0  0  0  0  0  0  0
   14.4859   -3.2096    0.0000 Cl  0  0  0  0  0  0  0  0  0  0  0  0
   10.3952   -6.7512    0.0000 N   0  0  0  0  0  0  0  0  0  0  0  0
   11.4183   -7.3419    0.0000 C   0  0  0  0  0  0  0  0  0  0  0  0
   11.4183   -8.5233    0.0000 C   0  0  0  0  0  0  0  0  0  0  0  0
   10.3951   -9.1140    0.0000 N   0  0  0  0  0  0  0  0  0  0  0  0
    9.3720   -8.5233    0.0000 C   0  0  0  0  0  0  0  0  0  0  0  0
    9.3720   -7.3419    0.0000 C   0  0  0  0  0  0  0  0  0  0  0  0
   10.3951  -10.2954    0.0000 C   0  0  0  0  0  0  0  0  0  0  0  0
   11.4171  -10.8865    0.0000 C   0  0  0  0  0  0  0  0  0  0  0  0
   11.4171  -12.0644    0.0000 C   0  0  0  0  0  0  0  0  0  0  0  0
   10.3936  -12.6553    0.0000 C   0  0  0  0  0  0  0  0  0  0  0  0
    9.3675  -12.0694    0.0000 C   0  0  0  0  0  0  0  0  0  0  0  0
    9.3675  -10.8887    0.0000 C   0  0  0  0  0  0  0  0  0  0  0  0
  1  2  1  0  0  0  0
  2  3  2  0  0  0  0
  3  4  1  0  0  0  0
  4  5  2  0  0  0  0
  5  6  1  0  0  0  0
  6  1  2  0  0  0  0
  4  7  1  0  0  0  0
  7  8  1  0  0  0  0
  9  8  2  0  0  0  0
 10  9  1  0  0  0  0
 11 10  2  0  0  0  0
 12 11  1  0  0  0  0
 13 12  2  0  0  0  0
  8 13  1  0  0  0  0
 13 14  1  0  0  0  0
 11 15  1  0  0  0  0
  7 16  1  0  0  0  0
 17 16  1  0  0  0  0
 18 17  1  0  0  0  0
 19 18  1  0  0  0  0
 20 19  1  0  0  0  0
 21 20  1  0  0  0  0
 16 21  1  0  0  0  0
 19 22  1  0  0  0  0
 23 22  2  0  0  0  0
 24 23  1  0  0  0  0
 25 24  2  0  0  0  0
 26 25  1  0  0  0  0
 27 26  2  0  0  0  0
 22 27  1  0  0  0  0
M  END
>  <Work Package>
B

>  <Target ID>
P4_B_017

>  <Smiles>
Fc1cc(Cl)ccc1C(N2CCN(CC2)c3ccccc3)c4cccnc4

>  <Status >
completed - in test

>  <Target Proposed by>
U of Ghana

>  <Synthesis by>
U of Ghana

>  <logD>
3.922

$$$$
Chemistry 0
  StarDrop          2D                              

 32 35  0  0  0  0  0  0  0  0999 V2000
    6.8199   -3.9814    0.0000 C   0  0  0  0  0  0  0  0  0  0  0  0
    6.8199   -5.1676    0.0000 C   0  0  0  0  0  0  0  0  0  0  0  0
    7.8455   -5.7518    0.0000 C   0  0  0  0  0  0  0  0  0  0  0  0
    8.8622   -5.1623    0.0000 C   0  0  0  0  0  0  0  0  0  0  0  0
    8.8622   -3.9808    0.0000 C   0  0  0  0  0  0  0  0  0  0  0  0
    7.8430   -3.3911    0.0000 N   0  0  0  0  0  0  0  0  0  0  0  0
    9.8854   -5.7530    0.0000 C   0  0  0  0  0  0  0  0  0  0  0  0
   10.9085   -5.1623    0.0000 C   0  0  0  0  0  0  0  0  0  0  0  0
   10.9085   -3.9807    0.0000 C   0  0  0  0  0  0  0  0  0  0  0  0
   11.9295   -3.3927    0.0000 C   0  0  0  0  0  0  0  0  0  0  0  0
   12.9530   -3.9836    0.0000 C   0  0  0  0  0  0  0  0  0  0  0  0
   12.9530   -5.1592    0.0000 C   0  0  0  0  0  0  0  0  0  0  0  0
   11.9361   -5.7555    0.0000 C   0  0  0  0  0  0  0  0  0  0  0  0
   11.9361   -6.9370    0.0000 F   0  0  0  0  0  0  0  0  0  0  0  0
   13.9761   -3.3929    0.0000 Cl  0  0  0  0  0  0  0  0  0  0  0  0
    9.8854   -6.9345    0.0000 N   0  0  0  0  0  0  0  0  0  0  0  0
   10.9085   -7.5252    0.0000 C   0  0  0  0  0  0  0  0  0  0  0  0
   11.0804   -8.6858    0.0000 C   0  0  0  0  0  0  0  0  0  0  0  0
   10.2775   -9.5525    0.0000 N   0  0  0  0  0  0  0  0  0  0  0  0
    9.1035   -9.4700    0.0000 C   0  0  0  0  0  0  0  0  0  0  0  0
    8.4510   -8.4982    0.0000 C   0  0  0  0  0  0  0  0  0  0  0  0
    8.7867   -7.3668    0.0000 C   0  0  0  0  0  0  0  0  0  0  0  0
   10.5833  -10.6937    0.0000 C   0  0  0  0  0  0  0  0  0  0  0  0
   12.0283  -12.1379    0.0000 C   0  0  0  0  0  0  0  0  0  0  0  0
   11.7245  -10.9998    0.0000 N   0  0  0  0  0  0  0  0  0  0  0  0
   11.1926  -12.9736    0.0000 C   0  0  0  0  0  0  0  0  0  0  0  0
    9.7443  -11.5327    0.0000 N   0  0  0  0  0  0  0  0  0  0  0  0
   10.0565  -12.6715    0.0000 C   0  0  0  0  0  0  0  0  0  0  0  0
   13.1695  -12.4437    0.0000 C   0  0  0  0  0  0  0  0  0  0  0  0
   14.1944  -12.7183    0.0000 F   0  0  0  0  0  0  0  0  0  0  0  0
   12.8580  -13.6060    0.0000 F   0  0  0  0  0  0  0  0  0  0  0  0
   13.4751  -11.3029    0.0000 F   0  0  0  0  0  0  0  0  0  0  0  0
  1  2  1  0  0  0  0
  2  3  2  0  0  0  0
  3  4  1  0  0  0  0
  4  5  2  0  0  0  0
  5  6  1  0  0  0  0
  6  1  2  0  0  0  0
  4  7  1  0  0  0  0
  7  8  1  0  0  0  0
  9  8  2  0  0  0  0
 10  9  1  0  0  0  0
 11 10  2  0  0  0  0
 12 11  1  0  0  0  0
 13 12  2  0  0  0  0
  8 13  1  0  0  0  0
 13 14  1  0  0  0  0
 11 15  1  0  0  0  0
  7 16  1  0  0  0  0
 17 16  1  0  0  0  0
 17 18  1  0  0  0  0
 18 19  1  0  0  0  0
 19 20  1  0  0  0  0
 20 21  1  0  0  0  0
 22 21  1  0  0  0  0
 16 22  1  0  0  0  0
 19 23  1  0  0  0  0
 28 26  1  0  0  0  0
 27 28  2  0  0  0  0
 24 25  1  0  0  0  0
 26 24  2  0  0  0  0
 25 23  2  0  0  0  0
 23 27  1  0  0  0  0
 29 32  1  0  0  0  0
 29 31  1  0  0  0  0
 29 30  1  0  0  0  0
 24 29  1  0  0  0  0
M  END
>  <Work Package>
B

>  <Target ID>
P4_B_018

>  <Smiles>
Fc1cc(Cl)ccc1C(N2CCCN(CC2)c3nccc(n3)C(F)(F)F)c4cccnc4

>  <Status >
completed - in test

>  <Target Proposed by>
U of Ghana

>  <Synthesis by>
U of Ghana

>  <logD>
3.387

$$$$
Chemistry 26
  StarDrop          2D                              

 21 23  0  0  0  0  0  0  0  0999 V2000
    2.3383   -1.3500    0.0000 F   0  0  0  0  0  0  0  0  0  0  0  0
    1.2990   -0.7500    0.0000 C   0  0  0  0  0  0  0  0  0  0  0  0
    1.2990    0.7500    0.0000 C   0  0  0  0  0  0  0  0  0  0  0  0
    0.0000    1.5000    0.0000 C   0  0  0  0  0  0  0  0  0  0  0  0
    0.0000    2.7000    0.0000 Cl  0  0  0  0  0  0  0  0  0  0  0  0
   -1.2990    0.7500    0.0000 C   0  0  0  0  0  0  0  0  0  0  0  0
   -1.2990   -0.7500    0.0000 C   0  0  0  0  0  0  0  0  0  0  0  0
    0.0000   -1.5000    0.0000 C   0  0  0  0  0  0  0  0  0  0  0  0
   -0.0031   -3.0008    0.0000 C   0  0  0  0  0  0  0  0  0  0  0  0
    1.2953   -3.7535    0.0000 N   0  0  0  0  0  0  0  0  0  0  0  0
    1.2948   -5.2535    0.0000 C   0  0  0  0  0  0  0  0  0  0  0  0
    2.5936   -6.0040    0.0000 C   0  0  0  0  0  0  0  0  0  0  0  0
    3.8929   -5.2545    0.0000 O   0  0  0  0  0  0  0  0  0  0  0  0
    3.8935   -3.7545    0.0000 C   0  0  0  0  0  0  0  0  0  0  0  0
    2.5947   -3.0040    0.0000 C   0  0  0  0  0  0  0  0  0  0  0  0
   -1.3039   -3.7494    0.0000 C   0  0  0  0  0  0  0  0  0  0  0  0
   -1.3092   -5.2494    0.0000 C   0  0  0  0  0  0  0  0  0  0  0  0
   -2.6108   -5.9949    0.0000 C   0  0  0  0  0  0  0  0  0  0  0  0
   -3.9072   -5.2404    0.0000 C   0  0  0  0  0  0  0  0  0  0  0  0
   -3.9020   -3.7404    0.0000 N   0  0  0  0  0  0  0  0  0  0  0  0
   -2.6004   -2.9949    0.0000 C   0  0  0  0  0  0  0  0  0  0  0  0
  1  2  1  0  0  0  0
  2  3  2  0  0  0  0
  3  4  1  0  0  0  0
  4  5  1  0  0  0  0
  4  6  2  0  0  0  0
  6  7  1  0  0  0  0
  7  8  2  0  0  0  0
  8  2  1  0  0  0  0
  8  9  1  0  0  0  0
  9 10  1  0  0  0  0
 10 11  1  0  0  0  0
 11 12  1  0  0  0  0
 12 13  1  0  0  0  0
 13 14  1  0  0  0  0
 14 15  1  0  0  0  0
 15 10  1  0  0  0  0
  9 16  1  0  0  0  0
 16 17  2  0  0  0  0
 17 18  1  0  0  0  0
 18 19  2  0  0  0  0
 19 20  1  0  0  0  0
 20 21  2  0  0  0  0
 21 16  1  0  0  0  0
M  END
>  <Work Package>
C

>  <Target ID>
P4_C_001

>  <Smiles>
Fc1cc(Cl)ccc1C(N2CCOCC2)c3cccnc3

>  <Status >
Completed - in test

>  <Target Proposed by>
DNDI

>  <Synthesis by>
UCL

>  <logD>
2.489

$$$$
Chemistry 27
  StarDrop          2D                              

 23 25  0  0  0  0  0  0  0  0999 V2000
    2.3383   -1.3500    0.0000 F   0  0  0  0  0  0  0  0  0  0  0  0
    1.2990   -0.7500    0.0000 C   0  0  0  0  0  0  0  0  0  0  0  0
    1.2990    0.7500    0.0000 C   0  0  0  0  0  0  0  0  0  0  0  0
    0.0000    1.5000    0.0000 C   0  0  0  0  0  0  0  0  0  0  0  0
    0.0000    2.7000    0.0000 Cl  0  0  0  0  0  0  0  0  0  0  0  0
   -1.2990    0.7500    0.0000 C   0  0  0  0  0  0  0  0  0  0  0  0
   -1.2990   -0.7500    0.0000 C   0  0  0  0  0  0  0  0  0  0  0  0
    0.0000   -1.5000    0.0000 C   0  0  0  0  0  0  0  0  0  0  0  0
   -0.0031   -3.0008    0.0000 C   0  0  0  0  0  0  0  0  0  0  0  0
    1.2953   -3.7535    0.0000 N   0  0  0  0  0  0  0  0  0  0  0  0
    1.2948   -5.2535    0.0000 C   0  0  0  0  0  0  0  0  0  0  0  0
    2.5936   -6.0040    0.0000 C   0  0  0  0  0  0  0  0  0  0  0  0
    3.8929   -5.2545    0.0000 C   0  0  0  0  0  0  0  0  0  0  0  0
    3.8641   -6.4542    0.0000 F   0  0  0  0  0  0  0  0  0  0  0  0
    4.9180   -4.6307    0.0000 F   0  0  0  0  0  0  0  0  0  0  0  0
    3.8935   -3.7545    0.0000 C   0  0  0  0  0  0  0  0  0  0  0  0
    2.5947   -3.0040    0.0000 C   0  0  0  0  0  0  0  0  0  0  0  0
   -1.3039   -3.7494    0.0000 C   0  0  0  0  0  0  0  0  0  0  0  0
   -1.3092   -5.2494    0.0000 C   0  0  0  0  0  0  0  0  0  0  0  0
   -2.6108   -5.9949    0.0000 C   0  0  0  0  0  0  0  0  0  0  0  0
   -3.9072   -5.2404    0.0000 C   0  0  0  0  0  0  0  0  0  0  0  0
   -3.9020   -3.7404    0.0000 N   0  0  0  0  0  0  0  0  0  0  0  0
   -2.6004   -2.9949    0.0000 C   0  0  0  0  0  0  0  0  0  0  0  0
  1  2  1  0  0  0  0
  2  3  2  0  0  0  0
  3  4  1  0  0  0  0
  4  5  1  0  0  0  0
  4  6  2  0  0  0  0
  6  7  1  0  0  0  0
  7  8  2  0  0  0  0
  8  2  1  0  0  0  0
  8  9  1  0  0  0  0
  9 10  1  0  0  0  0
 10 11  1  0  0  0  0
 11 12  1  0  0  0  0
 12 13  1  0  0  0  0
 13 14  1  0  0  0  0
 13 15  1  0  0  0  0
 13 16  1  0  0  0  0
 16 17  1  0  0  0  0
 17 10  1  0  0  0  0
  9 18  1  0  0  0  0
 18 19  2  0  0  0  0
 19 20  1  0  0  0  0
 20 21  2  0  0  0  0
 21 22  1  0  0  0  0
 22 23  2  0  0  0  0
 23 18  1  0  0  0  0
M  END
>  <Work Package>
C

>  <Target ID>
P4_C_002

>  <Smiles>
Fc1cc(Cl)ccc1C(N2CCC(F)(F)CC2)c3cccnc3

>  <Status >
Completed - in test

>  <Target Proposed by>
DNDI

>  <Synthesis by>
UCL

>  <logD>
3.112

$$$$
Chemistry 28
  StarDrop          2D                              

 21 23  0  0  0  0  0  0  0  0999 V2000
    2.3383   -1.3500    0.0000 F   0  0  0  0  0  0  0  0  0  0  0  0
    1.2990   -0.7500    0.0000 C   0  0  0  0  0  0  0  0  0  0  0  0
    1.2990    0.7500    0.0000 C   0  0  0  0  0  0  0  0  0  0  0  0
    0.0000    1.5000    0.0000 C   0  0  0  0  0  0  0  0  0  0  0  0
    0.0000    2.7000    0.0000 Cl  0  0  0  0  0  0  0  0  0  0  0  0
   -1.2990    0.7500    0.0000 C   0  0  0  0  0  0  0  0  0  0  0  0
   -1.2990   -0.7500    0.0000 C   0  0  0  0  0  0  0  0  0  0  0  0
    0.0000   -1.5000    0.0000 C   0  0  0  0  0  0  0  0  0  0  0  0
   -0.0031   -3.0008    0.0000 C   0  0  0  0  0  0  0  0  0  0  0  0
    1.2953   -3.7535    0.0000 N   0  0  0  0  0  0  0  0  0  0  0  0
    1.2948   -5.2535    0.0000 C   0  0  0  0  0  0  0  0  0  0  0  0
    2.5936   -6.0040    0.0000 C   0  0  0  0  0  0  0  0  0  0  0  0
    3.8929   -5.2545    0.0000 C   0  0  0  0  0  0  0  0  0  0  0  0
    3.8935   -3.7545    0.0000 C   0  0  0  0  0  0  0  0  0  0  0  0
    2.5947   -3.0040    0.0000 C   0  0  0  0  0  0  0  0  0  0  0  0
   -1.3039   -3.7494    0.0000 C   0  0  0  0  0  0  0  0  0  0  0  0
   -1.3092   -5.2494    0.0000 C   0  0  0  0  0  0  0  0  0  0  0  0
   -2.6108   -5.9949    0.0000 C   0  0  0  0  0  0  0  0  0  0  0  0
   -3.9072   -5.2404    0.0000 C   0  0  0  0  0  0  0  0  0  0  0  0
   -3.9020   -3.7404    0.0000 N   0  0  0  0  0  0  0  0  0  0  0  0
   -2.6004   -2.9949    0.0000 C   0  0  0  0  0  0  0  0  0  0  0  0
  1  2  1  0  0  0  0
  2  3  2  0  0  0  0
  3  4  1  0  0  0  0
  4  5  1  0  0  0  0
  4  6  2  0  0  0  0
  6  7  1  0  0  0  0
  7  8  2  0  0  0  0
  8  2  1  0  0  0  0
  8  9  1  0  0  0  0
  9 10  1  0  0  0  0
 10 11  1  0  0  0  0
 11 12  1  0  0  0  0
 12 13  1  0  0  0  0
 13 14  1  0  0  0  0
 14 15  1  0  0  0  0
 15 10  1  0  0  0  0
  9 16  1  0  0  0  0
 16 17  2  0  0  0  0
 17 18  1  0  0  0  0
 18 19  2  0  0  0  0
 19 20  1  0  0  0  0
 20 21  2  0  0  0  0
 21 16  1  0  0  0  0
M  END
>  <Work Package>
C

>  <Target ID>
P4_C_003

>  <Smiles>
Fc1cc(Cl)ccc1C(N2CCCCC2)c3cccnc3

>  <Status >
Completed - in test

>  <Target Proposed by>
DNDI

>  <Synthesis by>
UCL

>  <logD>
2.67

$$$$
Chemistry 29
  StarDrop          2D                              

 28 31  0  0  0  0  0  0  0  0999 V2000
    1.4000   -2.9894    0.0000 F   0  0  0  0  0  0  0  0  0  0  0  0
    2.5700   -3.2559    0.0000 C   0  0  0  0  0  0  0  0  0  0  0  0
    3.0126   -4.6891    0.0000 C   0  0  0  0  0  0  0  0  0  0  0  0
    4.4751   -5.0224    0.0000 C   0  0  0  0  0  0  0  0  0  0  0  0
    4.8293   -6.1689    0.0000 Cl  0  0  0  0  0  0  0  0  0  0  0  0
    5.4950   -3.9224    0.0000 C   0  0  0  0  0  0  0  0  0  0  0  0
    5.0524   -2.4892    0.0000 C   0  0  0  0  0  0  0  0  0  0  0  0
    3.5898   -2.1559    0.0000 C   0  0  0  0  0  0  0  0  0  0  0  0
    3.1498   -0.7210    0.0000 C   0  0  0  0  0  0  0  0  0  0  0  0
    1.6852   -0.3846    0.0000 N   0  0  0  0  0  0  0  0  0  0  0  0
    1.3514    1.0778    0.0000 C   0  0  0  0  0  0  0  0  0  0  0  0
    0.0000    1.7286    0.0000 C   0  0  0  0  0  0  0  0  0  0  0  0
   -1.3515    1.0777    0.0000 C   0  0  0  0  0  0  0  0  0  0  0  0
   -1.6852   -0.3847    0.0000 N   0  0  0  0  0  0  0  0  0  0  0  0
   -0.7500   -1.5574    0.0000 C   0  0  0  0  0  0  0  0  0  0  0  0
    0.7500   -1.5574    0.0000 C   0  0  0  0  0  0  0  0  0  0  0  0
   -3.1484   -0.7186    0.0000 C   0  0  0  0  0  0  0  0  0  0  0  0
   -4.1145    0.4339    0.0000 C   0  0  0  0  0  0  0  0  0  0  0  0
   -5.5920    0.1754    0.0000 C   0  0  0  0  0  0  0  0  0  0  0  0
   -6.1069   -1.2335    0.0000 C   0  0  0  0  0  0  0  0  0  0  0  0
   -5.1442   -2.3838    0.0000 C   0  0  0  0  0  0  0  0  0  0  0  0
   -3.6667   -2.1253    0.0000 C   0  0  0  0  0  0  0  0  0  0  0  0
    4.1718    0.3781    0.0000 C   0  0  0  0  0  0  0  0  0  0  0  0
    3.7341    1.8129    0.0000 C   0  0  0  0  0  0  0  0  0  0  0  0
    4.7578    2.9093    0.0000 C   0  0  0  0  0  0  0  0  0  0  0  0
    6.2191    2.5710    0.0000 C   0  0  0  0  0  0  0  0  0  0  0  0
    6.6568    1.1363    0.0000 N   0  0  0  0  0  0  0  0  0  0  0  0
    5.6332    0.0399    0.0000 C   0  0  0  0  0  0  0  0  0  0  0  0
  1  2  1  0  0  0  0
  2  3  2  0  0  0  0
  3  4  1  0  0  0  0
  4  5  1  0  0  0  0
  4  6  2  0  0  0  0
  6  7  1  0  0  0  0
  7  8  2  0  0  0  0
  8  2  1  0  0  0  0
  8  9  1  0  0  0  0
  9 10  1  0  0  0  0
 10 11  1  0  0  0  0
 11 12  1  0  0  0  0
 12 13  1  0  0  0  0
 13 14  1  0  0  0  0
 14 15  1  0  0  0  0
 15 16  1  0  0  0  0
 16 10  1  0  0  0  0
 14 17  1  0  0  0  0
 17 18  2  0  0  0  0
 18 19  1  0  0  0  0
 19 20  2  0  0  0  0
 20 21  1  0  0  0  0
 21 22  2  0  0  0  0
 22 17  1  0  0  0  0
  9 23  1  0  0  0  0
 23 24  2  0  0  0  0
 24 25  1  0  0  0  0
 25 26  2  0  0  0  0
 26 27  1  0  0  0  0
 27 28  2  0  0  0  0
 28 23  1  0  0  0  0
M  END
>  <Work Package>
C

>  <Target ID>
P4_C_004

>  <Smiles>
Fc1cc(Cl)ccc1C(N2CCCN(CC2)c3ccccc3)c4cccnc4

>  <Status >
Not Started

>  <Target Proposed by>
DNDI

>  <Synthesis by>
>  <logD>
3.988

$$$$
Chemistry 30
  StarDrop          2D                              

 27 29  0  0  0  0  0  0  0  0999 V2000
    5.4046   -3.6409    0.0000 C   0  0  0  0  0  0  0  0  0  0  0  0
    5.0525   -2.4938    0.0000 C   0  0  0  0  0  0  0  0  0  0  0  0
    3.5900   -2.1568    0.0000 O   0  0  0  0  0  0  0  0  0  0  0  0
    3.1497   -0.7220    0.0000 C   0  0  0  0  0  0  0  0  0  0  0  0
    3.9674    0.1562    0.0000 O   0  0  0  0  0  0  0  0  0  0  0  0
    1.6852   -0.3846    0.0000 N   0  0  0  0  0  0  0  0  0  0  0  0
    1.3514    1.0778    0.0000 C   0  0  0  0  0  0  0  0  0  0  0  0
    0.0000    1.7286    0.0000 C   0  0  0  0  0  0  0  0  0  0  0  0
   -1.3515    1.0777    0.0000 C   0  0  0  0  0  0  0  0  0  0  0  0
   -1.6852   -0.3847    0.0000 N   0  0  0  0  0  0  0  0  0  0  0  0
   -0.7500   -1.5574    0.0000 C   0  0  0  0  0  0  0  0  0  0  0  0
    0.7500   -1.5574    0.0000 C   0  0  0  0  0  0  0  0  0  0  0  0
   -3.1498   -0.7210    0.0000 C   0  0  0  0  0  0  0  0  0  0  0  0
   -3.5898   -2.1559    0.0000 C   0  0  0  0  0  0  0  0  0  0  0  0
   -2.5700   -3.2559    0.0000 C   0  0  0  0  0  0  0  0  0  0  0  0
   -3.0126   -4.6891    0.0000 C   0  0  0  0  0  0  0  0  0  0  0  0
   -4.4751   -5.0224    0.0000 C   0  0  0  0  0  0  0  0  0  0  0  0
   -5.4950   -3.9225    0.0000 N   0  0  0  0  0  0  0  0  0  0  0  0
   -5.0523   -2.4893    0.0000 C   0  0  0  0  0  0  0  0  0  0  0  0
   -4.1718    0.3781    0.0000 C   0  0  0  0  0  0  0  0  0  0  0  0
   -5.6332    0.0399    0.0000 C   0  0  0  0  0  0  0  0  0  0  0  0
   -6.6569    1.1363    0.0000 C   0  0  0  0  0  0  0  0  0  0  0  0
   -6.2191    2.5710    0.0000 C   0  0  0  0  0  0  0  0  0  0  0  0
   -7.0380    3.4482    0.0000 Cl  0  0  0  0  0  0  0  0  0  0  0  0
   -4.7578    2.9093    0.0000 C   0  0  0  0  0  0  0  0  0  0  0  0
   -3.7341    1.8129    0.0000 C   0  0  0  0  0  0  0  0  0  0  0  0
   -2.5651    2.0835    0.0000 F   0  0  0  0  0  0  0  0  0  0  0  0
  1  2  1  0  0  0  0
  2  3  1  0  0  0  0
  3  4  1  0  0  0  0
  4  5  2  0  0  0  0
  4  6  1  0  0  0  0
  6  7  1  0  0  0  0
  7  8  1  0  0  0  0
  8  9  1  0  0  0  0
  9 10  1  0  0  0  0
 10 11  1  0  0  0  0
 11 12  1  0  0  0  0
 12  6  1  0  0  0  0
 10 13  1  0  0  0  0
 13 14  1  0  0  0  0
 14 15  2  0  0  0  0
 15 16  1  0  0  0  0
 16 17  2  0  0  0  0
 17 18  1  0  0  0  0
 18 19  2  0  0  0  0
 19 14  1  0  0  0  0
 13 20  1  0  0  0  0
 20 21  2  0  0  0  0
 21 22  1  0  0  0  0
 22 23  2  0  0  0  0
 23 24  1  0  0  0  0
 23 25  1  0  0  0  0
 25 26  2  0  0  0  0
 26 20  1  0  0  0  0
 26 27  1  0  0  0  0
M  END
>  <Work Package>
C

>  <Target ID>
P4_C_005

>  <Smiles>
CCOC(=O)N1CCCN(CC1)C(c2cccnc2)c3ccc(Cl)cc3F

>  <Status >
Not Started

>  <Target Proposed by>
DNDI

>  <Synthesis by>
>  <logD>
2.59

$$$$
Chemistry 31
  StarDrop          2D                              

 24 27  0  0  0  0  0  0  0  0999 V2000
    0.2570   -3.1539    0.0000 F   0  0  0  0  0  0  0  0  0  0  0  0
    1.2965   -3.7535    0.0000 C   0  0  0  0  0  0  0  0  0  0  0  0
    1.2970   -5.2535    0.0000 C   0  0  0  0  0  0  0  0  0  0  0  0
    2.5964   -6.0030    0.0000 C   0  0  0  0  0  0  0  0  0  0  0  0
    2.5968   -7.2030    0.0000 Cl  0  0  0  0  0  0  0  0  0  0  0  0
    3.8951   -5.2526    0.0000 C   0  0  0  0  0  0  0  0  0  0  0  0
    3.8946   -3.7526    0.0000 C   0  0  0  0  0  0  0  0  0  0  0  0
    2.5952   -3.0030    0.0000 C   0  0  0  0  0  0  0  0  0  0  0  0
    2.5977   -1.5021    0.0000 C   0  0  0  0  0  0  0  0  0  0  0  0
    1.2990   -0.7500    0.0000 N   0  0  0  0  0  0  0  0  0  0  0  0
    1.2990    0.7500    0.0000 C   0  0  0  0  0  0  0  0  0  0  0  0
    0.0000    1.5000    0.0000 C   0  0  0  0  0  0  0  0  0  0  0  0
   -1.2990    0.7500    0.0000 N   0  0  0  0  0  0  0  0  0  0  0  0
   -2.7248    1.2135    0.0000 C   0  0  0  0  0  0  0  0  0  0  0  0
   -3.6065    0.0000    0.0000 C   0  0  0  0  0  0  0  0  0  0  0  0
   -2.7248   -1.2135    0.0000 C   0  0  0  0  0  0  0  0  0  0  0  0
   -1.2990   -0.7500    0.0000 C   0  0  0  0  0  0  0  0  0  0  0  0
    0.0000   -1.5000    0.0000 C   0  0  0  0  0  0  0  0  0  0  0  0
    3.8983   -0.7531    0.0000 C   0  0  0  0  0  0  0  0  0  0  0  0
    3.9029    0.7470    0.0000 C   0  0  0  0  0  0  0  0  0  0  0  0
    5.2043    1.4930    0.0000 C   0  0  0  0  0  0  0  0  0  0  0  0
    6.5010    0.7390    0.0000 C   0  0  0  0  0  0  0  0  0  0  0  0
    6.4964   -0.7610    0.0000 N   0  0  0  0  0  0  0  0  0  0  0  0
    5.1951   -1.5070    0.0000 C   0  0  0  0  0  0  0  0  0  0  0  0
  1  2  1  0  0  0  0
  2  3  2  0  0  0  0
  3  4  1  0  0  0  0
  4  5  1  0  0  0  0
  4  6  2  0  0  0  0
  6  7  1  0  0  0  0
  7  8  2  0  0  0  0
  8  2  1  0  0  0  0
  8  9  1  0  0  0  0
  9 10  1  0  0  0  0
 10 11  1  0  0  0  0
 11 12  1  0  0  0  0
 12 13  1  0  0  0  0
 13 14  1  0  0  0  0
 14 15  1  0  0  0  0
 15 16  1  0  0  0  0
 16 17  1  0  0  0  0
 17 13  1  0  0  0  0
 17 18  1  0  0  0  0
 18 10  1  0  0  0  0
  9 19  1  0  0  0  0
 19 20  2  0  0  0  0
 20 21  1  0  0  0  0
 21 22  2  0  0  0  0
 22 23  1  0  0  0  0
 23 24  2  0  0  0  0
 24 19  1  0  0  0  0
M  END
>  <Work Package>
C

>  <Target ID>
P4_C_006

>  <Smiles>
Fc1cc(Cl)ccc1C(N2CCN3CCCC3C2)c4cccnc4

>  <Status >
Not Started

>  <Target Proposed by>
Mycetos Github

>  <Synthesis by>
>  <logD>
2.645

$$$$
Chemistry 32
  StarDrop          2D                              

 24 27  0  0  0  0  0  0  0  0999 V2000
    0.2570   -3.1539    0.0000 F   0  0  0  0  0  0  0  0  0  0  0  0
    1.2965   -3.7535    0.0000 C   0  0  0  0  0  0  0  0  0  0  0  0
    1.2970   -5.2535    0.0000 C   0  0  0  0  0  0  0  0  0  0  0  0
    2.5964   -6.0030    0.0000 C   0  0  0  0  0  0  0  0  0  0  0  0
    2.5968   -7.2030    0.0000 Cl  0  0  0  0  0  0  0  0  0  0  0  0
    3.8951   -5.2526    0.0000 C   0  0  0  0  0  0  0  0  0  0  0  0
    3.8946   -3.7526    0.0000 C   0  0  0  0  0  0  0  0  0  0  0  0
    2.5952   -3.0030    0.0000 C   0  0  0  0  0  0  0  0  0  0  0  0
    2.5977   -1.5021    0.0000 C   0  0  0  0  0  0  0  0  0  0  0  0
    1.2990   -0.7500    0.0000 N   0  0  0  0  0  0  0  0  0  0  0  0
    1.2990    0.7500    0.0000 C   0  0  0  0  0  0  0  0  0  0  0  0
    0.0000    1.5000    0.0000 C   0  0  0  0  0  0  0  0  0  0  0  0
   -1.2990    0.7500    0.0000 N   0  0  0  0  0  0  0  0  0  0  0  0
   -2.7248    1.2135    0.0000 C   0  0  0  0  0  0  0  0  0  0  0  0
   -3.6065    0.0000    0.0000 N   0  0  0  0  0  0  0  0  0  0  0  0
   -2.7248   -1.2135    0.0000 C   0  0  0  0  0  0  0  0  0  0  0  0
   -1.2990   -0.7500    0.0000 C   0  0  0  0  0  0  0  0  0  0  0  0
    0.0000   -1.5000    0.0000 C   0  0  0  0  0  0  0  0  0  0  0  0
    3.8983   -0.7531    0.0000 C   0  0  0  0  0  0  0  0  0  0  0  0
    3.9029    0.7470    0.0000 C   0  0  0  0  0  0  0  0  0  0  0  0
    5.2043    1.4930    0.0000 C   0  0  0  0  0  0  0  0  0  0  0  0
    6.5010    0.7390    0.0000 C   0  0  0  0  0  0  0  0  0  0  0  0
    6.4964   -0.7610    0.0000 N   0  0  0  0  0  0  0  0  0  0  0  0
    5.1951   -1.5070    0.0000 C   0  0  0  0  0  0  0  0  0  0  0  0
  1  2  1  0  0  0  0
  2  3  2  0  0  0  0
  3  4  1  0  0  0  0
  4  5  1  0  0  0  0
  4  6  2  0  0  0  0
  6  7  1  0  0  0  0
  7  8  2  0  0  0  0
  8  2  1  0  0  0  0
  8  9  1  0  0  0  0
  9 10  1  0  0  0  0
 10 11  1  0  0  0  0
 11 12  1  0  0  0  0
 12 13  1  0  0  0  0
 13 14  1  0  0  0  0
 14 15  2  0  0  0  0
 15 16  1  0  0  0  0
 16 17  2  0  0  0  0
 17 13  1  0  0  0  0
 17 18  1  0  0  0  0
 18 10  1  0  0  0  0
  9 19  1  0  0  0  0
 19 20  2  0  0  0  0
 20 21  1  0  0  0  0
 21 22  2  0  0  0  0
 22 23  1  0  0  0  0
 23 24  2  0  0  0  0
 24 19  1  0  0  0  0
M  END
>  <Work Package>
C

>  <Target ID>
P4_C_007

>  <Smiles>
Fc1cc(Cl)ccc1C(N2CCn3cncc3C2)c4cccnc4

>  <Status >
Not Started

>  <Target Proposed by>
Mycetos Github

>  <Synthesis by>
>  <logD>
2.387

$$$$
Chemistry 33
  StarDrop          2D                              

 22 24  0  0  0  0  0  0  0  0999 V2000
    2.3383   -1.3500    0.0000 O   0  0  0  0  0  0  0  0  0  0  0  0
    1.2990   -0.7500    0.0000 C   0  0  0  0  0  0  0  0  0  0  0  0
    1.2990    0.7500    0.0000 C   0  0  0  0  0  0  0  0  0  0  0  0
    0.0000    1.5000    0.0000 C   0  0  0  0  0  0  0  0  0  0  0  0
   -1.2990    0.7500    0.0000 N   0  0  0  0  0  0  0  0  0  0  0  0
   -1.2990   -0.7500    0.0000 C   0  0  0  0  0  0  0  0  0  0  0  0
    0.0000   -1.5000    0.0000 C   0  0  0  0  0  0  0  0  0  0  0  0
   -2.5998    1.4986    0.0000 C   0  0  0  0  0  0  0  0  0  0  0  0
   -3.8983    0.7460    0.0000 C   0  0  0  0  0  0  0  0  0  0  0  0
   -3.8989   -0.7540    0.0000 C   0  0  0  0  0  0  0  0  0  0  0  0
   -5.1982   -1.5035    0.0000 C   0  0  0  0  0  0  0  0  0  0  0  0
   -6.4970   -0.7530    0.0000 C   0  0  0  0  0  0  0  0  0  0  0  0
   -6.4964    0.7470    0.0000 N   0  0  0  0  0  0  0  0  0  0  0  0
   -5.1971    1.4965    0.0000 C   0  0  0  0  0  0  0  0  0  0  0  0
   -2.6013    2.9994    0.0000 C   0  0  0  0  0  0  0  0  0  0  0  0
   -3.9027    3.7455    0.0000 C   0  0  0  0  0  0  0  0  0  0  0  0
   -3.9073    5.2455    0.0000 C   0  0  0  0  0  0  0  0  0  0  0  0
   -2.6105    5.9995    0.0000 C   0  0  0  0  0  0  0  0  0  0  0  0
   -2.6142    7.1995    0.0000 Cl  0  0  0  0  0  0  0  0  0  0  0  0
   -1.3092    5.2535    0.0000 C   0  0  0  0  0  0  0  0  0  0  0  0
   -1.3046    3.7535    0.0000 C   0  0  0  0  0  0  0  0  0  0  0  0
   -0.2635    3.1567    0.0000 F   0  0  0  0  0  0  0  0  0  0  0  0
  1  2  1  0  0  0  0
  2  3  1  0  0  0  0
  3  4  1  0  0  0  0
  4  5  1  0  0  0  0
  5  6  1  0  0  0  0
  6  7  1  0  0  0  0
  7  2  1  0  0  0  0
  5  8  1  0  0  0  0
  8  9  1  0  0  0  0
  9 10  2  0  0  0  0
 10 11  1  0  0  0  0
 11 12  2  0  0  0  0
 12 13  1  0  0  0  0
 13 14  2  0  0  0  0
 14  9  1  0  0  0  0
  8 15  1  0  0  0  0
 15 16  2  0  0  0  0
 16 17  1  0  0  0  0
 17 18  2  0  0  0  0
 18 19  1  0  0  0  0
 18 20  1  0  0  0  0
 20 21  2  0  0  0  0
 21 15  1  0  0  0  0
 21 22  1  0  0  0  0
M  END
>  <Work Package>
C

>  <Target ID>
P4_C_009

>  <Smiles>
OC1CCN(CC1)C(c2cccnc2)c3ccc(Cl)cc3F

>  <Status >
Completed - in test

>  <Target Proposed by>
Mycetos Github

>  <Synthesis by>
UCL

>  <logD>
1.911

$$$$
Chemistry 34
  StarDrop          2D                              

 23 25  0  0  0  0  0  0  0  0999 V2000
    2.5956   -2.7031    0.0000 C   0  0  0  0  0  0  0  0  0  0  0  0
    2.5973   -1.5031    0.0000 O   0  0  0  0  0  0  0  0  0  0  0  0
    1.2990   -0.7500    0.0000 C   0  0  0  0  0  0  0  0  0  0  0  0
    1.2990    0.7500    0.0000 C   0  0  0  0  0  0  0  0  0  0  0  0
    0.0000    1.5000    0.0000 C   0  0  0  0  0  0  0  0  0  0  0  0
   -1.2990    0.7500    0.0000 N   0  0  0  0  0  0  0  0  0  0  0  0
   -1.2990   -0.7500    0.0000 C   0  0  0  0  0  0  0  0  0  0  0  0
    0.0000   -1.5000    0.0000 C   0  0  0  0  0  0  0  0  0  0  0  0
   -2.5998    1.4986    0.0000 C   0  0  0  0  0  0  0  0  0  0  0  0
   -3.8983    0.7460    0.0000 C   0  0  0  0  0  0  0  0  0  0  0  0
   -3.8989   -0.7540    0.0000 C   0  0  0  0  0  0  0  0  0  0  0  0
   -5.1982   -1.5035    0.0000 C   0  0  0  0  0  0  0  0  0  0  0  0
   -6.4970   -0.7530    0.0000 C   0  0  0  0  0  0  0  0  0  0  0  0
   -6.4964    0.7470    0.0000 N   0  0  0  0  0  0  0  0  0  0  0  0
   -5.1971    1.4965    0.0000 C   0  0  0  0  0  0  0  0  0  0  0  0
   -2.6013    2.9994    0.0000 C   0  0  0  0  0  0  0  0  0  0  0  0
   -3.9027    3.7455    0.0000 C   0  0  0  0  0  0  0  0  0  0  0  0
   -3.9073    5.2455    0.0000 C   0  0  0  0  0  0  0  0  0  0  0  0
   -2.6105    5.9995    0.0000 C   0  0  0  0  0  0  0  0  0  0  0  0
   -2.6142    7.1995    0.0000 Cl  0  0  0  0  0  0  0  0  0  0  0  0
   -1.3092    5.2535    0.0000 C   0  0  0  0  0  0  0  0  0  0  0  0
   -1.3046    3.7535    0.0000 C   0  0  0  0  0  0  0  0  0  0  0  0
   -0.2635    3.1567    0.0000 F   0  0  0  0  0  0  0  0  0  0  0  0
  1  2  1  0  0  0  0
  2  3  1  0  0  0  0
  3  4  1  0  0  0  0
  4  5  1  0  0  0  0
  5  6  1  0  0  0  0
  6  7  1  0  0  0  0
  7  8  1  0  0  0  0
  8  3  1  0  0  0  0
  6  9  1  0  0  0  0
  9 10  1  0  0  0  0
 10 11  2  0  0  0  0
 11 12  1  0  0  0  0
 12 13  2  0  0  0  0
 13 14  1  0  0  0  0
 14 15  2  0  0  0  0
 15 10  1  0  0  0  0
  9 16  1  0  0  0  0
 16 17  2  0  0  0  0
 17 18  1  0  0  0  0
 18 19  2  0  0  0  0
 19 20  1  0  0  0  0
 19 21  1  0  0  0  0
 21 22  2  0  0  0  0
 22 16  1  0  0  0  0
 22 23  1  0  0  0  0
M  END
>  <Work Package>
C

>  <Target ID>
P4_C_010

>  <Smiles>
COC1CCN(CC1)C(c2cccnc2)c3ccc(Cl)cc3F

>  <Status >
Not Started

>  <Target Proposed by>
Mycetos Github

>  <Synthesis by>
>  <logD>
2.494

$$$$
Chemistry 35
  StarDrop          2D                              

 23 25  0  0  0  0  0  0  0  0999 V2000
    2.3238   -0.1256    0.0000 C   0  0  0  0  0  0  0  0  0  0  0  0
    1.2990   -0.7500    0.0000 C   0  0  0  0  0  0  0  0  0  0  0  0
    1.2709   -1.9497    0.0000 O   0  0  0  0  0  0  0  0  0  0  0  0
    1.2990    0.7500    0.0000 C   0  0  0  0  0  0  0  0  0  0  0  0
    0.0000    1.5000    0.0000 C   0  0  0  0  0  0  0  0  0  0  0  0
   -1.2990    0.7500    0.0000 N   0  0  0  0  0  0  0  0  0  0  0  0
   -1.2990   -0.7500    0.0000 C   0  0  0  0  0  0  0  0  0  0  0  0
    0.0000   -1.5000    0.0000 C   0  0  0  0  0  0  0  0  0  0  0  0
   -2.5998    1.4986    0.0000 C   0  0  0  0  0  0  0  0  0  0  0  0
   -3.8983    0.7460    0.0000 C   0  0  0  0  0  0  0  0  0  0  0  0
   -3.8989   -0.7540    0.0000 C   0  0  0  0  0  0  0  0  0  0  0  0
   -5.1982   -1.5035    0.0000 C   0  0  0  0  0  0  0  0  0  0  0  0
   -6.4970   -0.7530    0.0000 C   0  0  0  0  0  0  0  0  0  0  0  0
   -6.4964    0.7470    0.0000 N   0  0  0  0  0  0  0  0  0  0  0  0
   -5.1971    1.4965    0.0000 C   0  0  0  0  0  0  0  0  0  0  0  0
   -2.6013    2.9994    0.0000 C   0  0  0  0  0  0  0  0  0  0  0  0
   -3.9027    3.7455    0.0000 C   0  0  0  0  0  0  0  0  0  0  0  0
   -3.9073    5.2455    0.0000 C   0  0  0  0  0  0  0  0  0  0  0  0
   -2.6105    5.9995    0.0000 C   0  0  0  0  0  0  0  0  0  0  0  0
   -2.6142    7.1995    0.0000 Cl  0  0  0  0  0  0  0  0  0  0  0  0
   -1.3092    5.2535    0.0000 C   0  0  0  0  0  0  0  0  0  0  0  0
   -1.3046    3.7535    0.0000 C   0  0  0  0  0  0  0  0  0  0  0  0
   -0.2635    3.1567    0.0000 F   0  0  0  0  0  0  0  0  0  0  0  0
  1  2  1  0  0  0  0
  2  3  1  0  0  0  0
  2  4  1  0  0  0  0
  4  5  1  0  0  0  0
  5  6  1  0  0  0  0
  6  7  1  0  0  0  0
  7  8  1  0  0  0  0
  8  2  1  0  0  0  0
  6  9  1  0  0  0  0
  9 10  1  0  0  0  0
 10 11  2  0  0  0  0
 11 12  1  0  0  0  0
 12 13  2  0  0  0  0
 13 14  1  0  0  0  0
 14 15  2  0  0  0  0
 15 10  1  0  0  0  0
  9 16  1  0  0  0  0
 16 17  2  0  0  0  0
 17 18  1  0  0  0  0
 18 19  2  0  0  0  0
 19 20  1  0  0  0  0
 19 21  1  0  0  0  0
 21 22  2  0  0  0  0
 22 16  1  0  0  0  0
 22 23  1  0  0  0  0
M  END
>  <Work Package>
C

>  <Target ID>
P4_C_011

>  <Smiles>
CC1(O)CCN(CC1)C(c2cccnc2)c3ccc(Cl)cc3F

>  <Status >
Not Started

>  <Target Proposed by>
Mycetos Github

>  <Synthesis by>
>  <logD>
2.179

$$$$
Chemistry 36
  StarDrop          2D                              

 27 30  0  0  0  0  0  0  0  0999 V2000
    2.3383   -1.3500    0.0000 F   0  0  0  0  0  0  0  0  0  0  0  0
    1.2990   -0.7500    0.0000 C   0  0  0  0  0  0  0  0  0  0  0  0
    1.2990    0.7500    0.0000 C   0  0  0  0  0  0  0  0  0  0  0  0
    0.0000    1.5000    0.0000 C   0  0  0  0  0  0  0  0  0  0  0  0
    0.0000    2.7000    0.0000 Cl  0  0  0  0  0  0  0  0  0  0  0  0
   -1.2990    0.7500    0.0000 C   0  0  0  0  0  0  0  0  0  0  0  0
   -1.2990   -0.7500    0.0000 C   0  0  0  0  0  0  0  0  0  0  0  0
    0.0000   -1.5000    0.0000 C   0  0  0  0  0  0  0  0  0  0  0  0
   -0.0031   -3.0008    0.0000 C   0  0  0  0  0  0  0  0  0  0  0  0
    1.2953   -3.7535    0.0000 N   0  0  0  0  0  0  0  0  0  0  0  0
    1.4326   -5.2344    0.0000 C   0  0  0  0  0  0  0  0  0  0  0  0
    2.8997   -5.5468    0.0000 C   0  0  0  0  0  0  0  0  0  0  0  0
    3.6502   -4.2481    0.0000 C   0  0  0  0  0  0  0  0  0  0  0  0
    2.6470   -3.1330    0.0000 C   0  0  0  0  0  0  0  0  0  0  0  0
    5.1400   -4.0889    0.0000 O   0  0  0  0  0  0  0  0  0  0  0  0
    5.7490   -2.7172    0.0000 C   0  0  0  0  0  0  0  0  0  0  0  0
    7.2403   -2.5557    0.0000 C   0  0  0  0  0  0  0  0  0  0  0  0
    7.8462   -1.1835    0.0000 C   0  0  0  0  0  0  0  0  0  0  0  0
    6.9607    0.0273    0.0000 C   0  0  0  0  0  0  0  0  0  0  0  0
    5.4694   -0.1341    0.0000 C   0  0  0  0  0  0  0  0  0  0  0  0
    4.8636   -1.5063    0.0000 C   0  0  0  0  0  0  0  0  0  0  0  0
   -1.3039   -3.7494    0.0000 C   0  0  0  0  0  0  0  0  0  0  0  0
   -1.3092   -5.2494    0.0000 C   0  0  0  0  0  0  0  0  0  0  0  0
   -2.6108   -5.9949    0.0000 C   0  0  0  0  0  0  0  0  0  0  0  0
   -3.9072   -5.2404    0.0000 C   0  0  0  0  0  0  0  0  0  0  0  0
   -3.9020   -3.7404    0.0000 N   0  0  0  0  0  0  0  0  0  0  0  0
   -2.6004   -2.9949    0.0000 C   0  0  0  0  0  0  0  0  0  0  0  0
  1  2  1  0  0  0  0
  2  3  2  0  0  0  0
  3  4  1  0  0  0  0
  4  5  1  0  0  0  0
  4  6  2  0  0  0  0
  6  7  1  0  0  0  0
  7  8  2  0  0  0  0
  8  2  1  0  0  0  0
  8  9  1  0  0  0  0
  9 10  1  0  0  0  0
 10 11  1  0  0  0  0
 11 12  1  0  0  0  0
 12 13  1  0  0  0  0
 13 14  1  0  0  0  0
 14 10  1  0  0  0  0
 13 15  1  0  0  0  0
 15 16  1  0  0  0  0
 16 17  2  0  0  0  0
 17 18  1  0  0  0  0
 18 19  2  0  0  0  0
 19 20  1  0  0  0  0
 20 21  2  0  0  0  0
 21 16  1  0  0  0  0
  9 22  1  0  0  0  0
 22 23  2  0  0  0  0
 23 24  1  0  0  0  0
 24 25  2  0  0  0  0
 25 26  1  0  0  0  0
 26 27  2  0  0  0  0
 27 22  1  0  0  0  0
M  END
>  <Work Package>
C

>  <Target ID>
P4_C_013

>  <Smiles>
Fc1cc(Cl)ccc1C(N2CCC(C2)Oc3ccccc3)c4cccnc4

>  <Status >
Not Started

>  <Target Proposed by>
Mycetos Github

>  <Synthesis by>
>  <logD>
3.794

$$$$
Chemistry 42
  StarDrop          2D                              

 23 25  0  0  0  0  0  0  0  0999 V2000
    2.3383   -1.3500    0.0000 F   0  0  0  0  0  0  0  0  0  0  0  0
    1.2990   -0.7500    0.0000 C   0  0  0  0  0  0  0  0  0  0  0  0
    1.2990    0.7500    0.0000 C   0  0  0  0  0  0  0  0  0  0  0  0
    0.0000    1.5000    0.0000 C   0  0  0  0  0  0  0  0  0  0  0  0
    0.0000    2.7000    0.0000 Cl  0  0  0  0  0  0  0  0  0  0  0  0
   -1.2990    0.7500    0.0000 C   0  0  0  0  0  0  0  0  0  0  0  0
   -1.2990   -0.7500    0.0000 C   0  0  0  0  0  0  0  0  0  0  0  0
    0.0000   -1.5000    0.0000 C   0  0  0  0  0  0  0  0  0  0  0  0
   -0.0031   -3.0008    0.0000 C   0  0  0  0  0  0  0  0  0  0  0  0
   -1.3039   -3.7494    0.0000 N   0  0  0  0  0  0  0  0  0  0  0  0
   -1.3070   -5.2502    0.0000 C   0  0  0  0  0  0  0  0  0  0  0  0
   -2.6078   -5.9988    0.0000 C   0  0  0  0  0  0  0  0  0  0  0  0
   -2.6131   -7.4988    0.0000 C   0  0  0  0  0  0  0  0  0  0  0  0
   -3.9147   -8.2443    0.0000 C   0  0  0  0  0  0  0  0  0  0  0  0
   -5.2111   -7.4898    0.0000 C   0  0  0  0  0  0  0  0  0  0  0  0
   -5.2060   -5.9898    0.0000 C   0  0  0  0  0  0  0  0  0  0  0  0
   -3.9043   -5.2443    0.0000 C   0  0  0  0  0  0  0  0  0  0  0  0
    1.2953   -3.7535    0.0000 C   0  0  0  0  0  0  0  0  0  0  0  0
    1.2948   -5.2535    0.0000 C   0  0  0  0  0  0  0  0  0  0  0  0
    2.5936   -6.0040    0.0000 C   0  0  0  0  0  0  0  0  0  0  0  0
    3.8929   -5.2545    0.0000 C   0  0  0  0  0  0  0  0  0  0  0  0
    3.8935   -3.7545    0.0000 N   0  0  0  0  0  0  0  0  0  0  0  0
    2.5947   -3.0040    0.0000 C   0  0  0  0  0  0  0  0  0  0  0  0
  1  2  1  0  0  0  0
  2  3  2  0  0  0  0
  3  4  1  0  0  0  0
  4  5  1  0  0  0  0
  4  6  2  0  0  0  0
  6  7  1  0  0  0  0
  7  8  2  0  0  0  0
  8  2  1  0  0  0  0
  8  9  1  0  0  0  0
  9 10  1  0  0  0  0
 10 11  1  0  0  0  0
 11 12  1  0  0  0  0
 12 13  2  0  0  0  0
 13 14  1  0  0  0  0
 14 15  2  0  0  0  0
 15 16  1  0  0  0  0
 16 17  2  0  0  0  0
 17 12  1  0  0  0  0
  9 18  1  0  0  0  0
 18 19  2  0  0  0  0
 19 20  1  0  0  0  0
 20 21  2  0  0  0  0
 21 22  1  0  0  0  0
 22 23  2  0  0  0  0
 23 18  1  0  0  0  0
M  END
>  <Work Package>
C

>  <Target ID>
P4_C_014

>  <Smiles>
Fc1cc(Cl)ccc1C(NCc2ccccc2)c3cccnc3

>  <Status >
Completed - in test

>  <Target Proposed by>
DNDI

>  <Synthesis by>
UCL

>  <logD>
2.59

$$$$
Chemistry 43
  StarDrop          2D                              

 24 26  0  0  0  0  0  0  0  0999 V2000
    1.5548   -3.6021    0.0000 C   0  0  0  0  0  0  0  0  0  0  0  0
    2.5951   -3.0039    0.0000 N   0  0  0  0  0  0  0  0  0  0  0  0
    2.5973   -1.5031    0.0000 C   0  0  0  0  0  0  0  0  0  0  0  0
    1.2990   -0.7500    0.0000 C   0  0  0  0  0  0  0  0  0  0  0  0
    1.2990    0.7500    0.0000 C   0  0  0  0  0  0  0  0  0  0  0  0
    0.0000    1.5000    0.0000 C   0  0  0  0  0  0  0  0  0  0  0  0
   -1.2990    0.7500    0.0000 C   0  0  0  0  0  0  0  0  0  0  0  0
   -1.2990   -0.7500    0.0000 C   0  0  0  0  0  0  0  0  0  0  0  0
    0.0000   -1.5000    0.0000 C   0  0  0  0  0  0  0  0  0  0  0  0
    3.8933   -3.7570    0.0000 C   0  0  0  0  0  0  0  0  0  0  0  0
    3.8912   -5.2578    0.0000 C   0  0  0  0  0  0  0  0  0  0  0  0
    5.1876   -6.0124    0.0000 C   0  0  0  0  0  0  0  0  0  0  0  0
    5.1824   -7.5124    0.0000 C   0  0  0  0  0  0  0  0  0  0  0  0
    3.8808   -8.2579    0.0000 C   0  0  0  0  0  0  0  0  0  0  0  0
    2.5844   -7.5034    0.0000 N   0  0  0  0  0  0  0  0  0  0  0  0
    2.5895   -6.0034    0.0000 C   0  0  0  0  0  0  0  0  0  0  0  0
    5.1943   -3.0089    0.0000 C   0  0  0  0  0  0  0  0  0  0  0  0
    5.1950   -1.5088    0.0000 C   0  0  0  0  0  0  0  0  0  0  0  0
    6.4943   -0.7593    0.0000 C   0  0  0  0  0  0  0  0  0  0  0  0
    7.7931   -1.5098    0.0000 C   0  0  0  0  0  0  0  0  0  0  0  0
    8.8325   -0.9102    0.0000 Cl  0  0  0  0  0  0  0  0  0  0  0  0
    7.7925   -3.0098    0.0000 C   0  0  0  0  0  0  0  0  0  0  0  0
    6.4932   -3.7593    0.0000 C   0  0  0  0  0  0  0  0  0  0  0  0
    6.4928   -4.9593    0.0000 F   0  0  0  0  0  0  0  0  0  0  0  0
  1  2  1  0  0  0  0
  2  3  1  0  0  0  0
  3  4  1  0  0  0  0
  4  5  2  0  0  0  0
  5  6  1  0  0  0  0
  6  7  2  0  0  0  0
  7  8  1  0  0  0  0
  8  9  2  0  0  0  0
  9  4  1  0  0  0  0
  2 10  1  0  0  0  0
 10 11  1  0  0  0  0
 11 12  2  0  0  0  0
 12 13  1  0  0  0  0
 13 14  2  0  0  0  0
 14 15  1  0  0  0  0
 15 16  2  0  0  0  0
 16 11  1  0  0  0  0
 10 17  1  0  0  0  0
 17 18  2  0  0  0  0
 18 19  1  0  0  0  0
 19 20  2  0  0  0  0
 20 21  1  0  0  0  0
 20 22  1  0  0  0  0
 22 23  2  0  0  0  0
 23 17  1  0  0  0  0
 23 24  1  0  0  0  0
M  END
>  <Work Package>
C

>  <Target ID>
P4_C_015

>  <Smiles>
CN(Cc1ccccc1)C(c2cccnc2)c3ccc(Cl)cc3F

>  <Status >
Completed - in test

>  <Target Proposed by>
DNDI

>  <Synthesis by>
UCL

>  <logD>
3.165

$$$$
Chemistry 37
  StarDrop          2D                              

 25 28  0  0  0  0  0  0  0  0999 V2000
    0.2570   -3.1539    0.0000 F   0  0  0  0  0  0  0  0  0  0  0  0
    1.2965   -3.7535    0.0000 C   0  0  0  0  0  0  0  0  0  0  0  0
    1.2970   -5.2535    0.0000 C   0  0  0  0  0  0  0  0  0  0  0  0
    2.5964   -6.0030    0.0000 C   0  0  0  0  0  0  0  0  0  0  0  0
    2.5968   -7.2030    0.0000 Cl  0  0  0  0  0  0  0  0  0  0  0  0
    3.8951   -5.2526    0.0000 C   0  0  0  0  0  0  0  0  0  0  0  0
    3.8946   -3.7526    0.0000 C   0  0  0  0  0  0  0  0  0  0  0  0
    2.5952   -3.0030    0.0000 C   0  0  0  0  0  0  0  0  0  0  0  0
    2.5977   -1.5021    0.0000 C   0  0  0  0  0  0  0  0  0  0  0  0
    1.2990   -0.7500    0.0000 N   0  0  0  0  0  0  0  0  0  0  0  0
    1.2990    0.7500    0.0000 C   0  0  0  0  0  0  0  0  0  0  0  0
    0.0000    1.5000    0.0000 C   0  0  0  0  0  0  0  0  0  0  0  0
   -1.2990    0.7500    0.0000 C   0  0  0  0  0  0  0  0  0  0  0  0
   -2.5981    1.5000    0.0000 C   0  0  0  0  0  0  0  0  0  0  0  0
   -3.8971    0.7500    0.0000 C   0  0  0  0  0  0  0  0  0  0  0  0
   -3.8971   -0.7500    0.0000 C   0  0  0  0  0  0  0  0  0  0  0  0
   -2.5981   -1.5000    0.0000 C   0  0  0  0  0  0  0  0  0  0  0  0
   -1.2990   -0.7500    0.0000 C   0  0  0  0  0  0  0  0  0  0  0  0
    0.0000   -1.5000    0.0000 C   0  0  0  0  0  0  0  0  0  0  0  0
    3.8983   -0.7531    0.0000 C   0  0  0  0  0  0  0  0  0  0  0  0
    3.9029    0.7470    0.0000 C   0  0  0  0  0  0  0  0  0  0  0  0
    5.2043    1.4930    0.0000 C   0  0  0  0  0  0  0  0  0  0  0  0
    6.5010    0.7390    0.0000 C   0  0  0  0  0  0  0  0  0  0  0  0
    6.4964   -0.7610    0.0000 N   0  0  0  0  0  0  0  0  0  0  0  0
    5.1951   -1.5070    0.0000 C   0  0  0  0  0  0  0  0  0  0  0  0
  1  2  1  0  0  0  0
  2  3  2  0  0  0  0
  3  4  1  0  0  0  0
  4  5  1  0  0  0  0
  4  6  2  0  0  0  0
  6  7  1  0  0  0  0
  7  8  2  0  0  0  0
  8  2  1  0  0  0  0
  8  9  1  0  0  0  0
  9 10  1  0  0  0  0
 10 11  1  0  0  0  0
 11 12  1  0  0  0  0
 12 13  1  0  0  0  0
 13 14  2  0  0  0  0
 14 15  1  0  0  0  0
 15 16  2  0  0  0  0
 16 17  1  0  0  0  0
 17 18  2  0  0  0  0
 18 13  1  0  0  0  0
 18 19  1  0  0  0  0
 19 10  1  0  0  0  0
  9 20  1  0  0  0  0
 20 21  2  0  0  0  0
 21 22  1  0  0  0  0
 22 23  2  0  0  0  0
 23 24  1  0  0  0  0
 24 25  2  0  0  0  0
 25 20  1  0  0  0  0
M  END
>  <Work Package>
C

>  <Target ID>
P4_C_DM10

>  <Smiles>
Fc1cc(Cl)ccc1C(N2CCc3ccccc3C2)c4cccnc4

>  <Status >
Completed - in test

>  <Target Proposed by>
Mycetos Github

>  <Synthesis by>
UCL

>  <logD>
3.728

$$$$
Chemistry 40
  StarDrop          2D                              

 22 24  0  0  0  0  0  0  0  0999 V2000
    2.3383   -1.3500    0.0000 F   0  0  0  0  0  0  0  0  0  0  0  0
    1.2990   -0.7500    0.0000 C   0  0  0  0  0  0  0  0  0  0  0  0
    1.2990    0.7500    0.0000 C   0  0  0  0  0  0  0  0  0  0  0  0
    0.0000    1.5000    0.0000 C   0  0  0  0  0  0  0  0  0  0  0  0
    0.0000    2.7000    0.0000 Cl  0  0  0  0  0  0  0  0  0  0  0  0
   -1.2990    0.7500    0.0000 C   0  0  0  0  0  0  0  0  0  0  0  0
   -1.2990   -0.7500    0.0000 C   0  0  0  0  0  0  0  0  0  0  0  0
    0.0000   -1.5000    0.0000 C   0  0  0  0  0  0  0  0  0  0  0  0
   -0.0031   -3.0008    0.0000 C   0  0  0  0  0  0  0  0  0  0  0  0
   -1.3039   -3.7494    0.0000 N   0  0  0  0  0  0  0  0  0  0  0  0
   -1.3070   -5.2502    0.0000 C   0  0  0  0  0  0  0  0  0  0  0  0
   -2.6060   -6.0003    0.0000 C   0  0  0  0  0  0  0  0  0  0  0  0
   -2.6060   -7.5003    0.0000 C   0  0  0  0  0  0  0  0  0  0  0  0
   -1.3070   -8.2503    0.0000 C   0  0  0  0  0  0  0  0  0  0  0  0
   -0.0080   -7.5003    0.0000 C   0  0  0  0  0  0  0  0  0  0  0  0
   -0.0079   -6.0003    0.0000 C   0  0  0  0  0  0  0  0  0  0  0  0
    1.2953   -3.7535    0.0000 C   0  0  0  0  0  0  0  0  0  0  0  0
    1.2948   -5.2535    0.0000 C   0  0  0  0  0  0  0  0  0  0  0  0
    2.5936   -6.0040    0.0000 C   0  0  0  0  0  0  0  0  0  0  0  0
    3.8929   -5.2545    0.0000 C   0  0  0  0  0  0  0  0  0  0  0  0
    3.8935   -3.7545    0.0000 N   0  0  0  0  0  0  0  0  0  0  0  0
    2.5947   -3.0040    0.0000 C   0  0  0  0  0  0  0  0  0  0  0  0
  1  2  1  0  0  0  0
  2  3  2  0  0  0  0
  3  4  1  0  0  0  0
  4  5  1  0  0  0  0
  4  6  2  0  0  0  0
  6  7  1  0  0  0  0
  7  8  2  0  0  0  0
  8  2  1  0  0  0  0
  8  9  1  0  0  0  0
  9 10  1  0  0  0  0
 10 11  1  0  0  0  0
 11 12  2  0  0  0  0
 12 13  1  0  0  0  0
 13 14  2  0  0  0  0
 14 15  1  0  0  0  0
 15 16  2  0  0  0  0
 16 11  1  0  0  0  0
  9 17  1  0  0  0  0
 17 18  2  0  0  0  0
 18 19  1  0  0  0  0
 19 20  2  0  0  0  0
 20 21  1  0  0  0  0
 21 22  2  0  0  0  0
 22 17  1  0  0  0  0
M  END
>  <Work Package>
C

>  <Target ID>
P4_C_DM24

>  <Smiles>
Fc1cc(Cl)ccc1C(Nc2ccccc2)c3cccnc3

>  <Status >
Completed - in test

>  <Target Proposed by>
Mycetos Github

>  <Synthesis by>
UCL

>  <logD>
2.969

$$$$
Chemistry 41
  StarDrop          2D                              

 23 25  0  0  0  0  0  0  0  0999 V2000
    1.5548   -3.6021    0.0000 C   0  0  0  0  0  0  0  0  0  0  0  0
    2.5951   -3.0039    0.0000 N   0  0  0  0  0  0  0  0  0  0  0  0
    2.5973   -1.5031    0.0000 C   0  0  0  0  0  0  0  0  0  0  0  0
    1.2990   -0.7500    0.0000 C   0  0  0  0  0  0  0  0  0  0  0  0
    1.2990    0.7500    0.0000 C   0  0  0  0  0  0  0  0  0  0  0  0
    0.0000    1.5000    0.0000 C   0  0  0  0  0  0  0  0  0  0  0  0
   -1.2990    0.7500    0.0000 C   0  0  0  0  0  0  0  0  0  0  0  0
   -1.2990   -0.7500    0.0000 N   0  0  0  0  0  0  0  0  0  0  0  0
    0.0000   -1.5000    0.0000 C   0  0  0  0  0  0  0  0  0  0  0  0
    3.8982   -0.7550    0.0000 C   0  0  0  0  0  0  0  0  0  0  0  0
    3.8989    0.7451    0.0000 C   0  0  0  0  0  0  0  0  0  0  0  0
    5.1983    1.4946    0.0000 C   0  0  0  0  0  0  0  0  0  0  0  0
    6.4970    0.7441    0.0000 C   0  0  0  0  0  0  0  0  0  0  0  0
    7.5365    1.3437    0.0000 Cl  0  0  0  0  0  0  0  0  0  0  0  0
    6.4964   -0.7559    0.0000 C   0  0  0  0  0  0  0  0  0  0  0  0
    5.1971   -1.5054    0.0000 C   0  0  0  0  0  0  0  0  0  0  0  0
    5.1968   -2.5054    0.0000 F   0  0  0  0  0  0  0  0  0  0  0  0
    3.8933   -3.7570    0.0000 C   0  0  0  0  0  0  0  0  0  0  0  0
    3.8934   -5.2570    0.0000 C   0  0  0  0  0  0  0  0  0  0  0  0
    5.1924   -6.0070    0.0000 C   0  0  0  0  0  0  0  0  0  0  0  0
    6.4915   -5.2571    0.0000 C   0  0  0  0  0  0  0  0  0  0  0  0
    6.4915   -3.7571    0.0000 C   0  0  0  0  0  0  0  0  0  0  0  0
    5.1925   -3.0070    0.0000 C   0  0  0  0  0  0  0  0  0  0  0  0
  1  2  1  0  0  0  0
  2  3  1  0  0  0  0
  3  4  1  0  0  0  0
  4  5  2  0  0  0  0
  5  6  1  0  0  0  0
  6  7  2  0  0  0  0
  7  8  1  0  0  0  0
  8  9  2  0  0  0  0
  9  4  1  0  0  0  0
  3 10  1  0  0  0  0
 10 11  2  0  0  0  0
 11 12  1  0  0  0  0
 12 13  2  0  0  0  0
 13 14  1  0  0  0  0
 13 15  1  0  0  0  0
 15 16  2  0  0  0  0
 16 10  1  0  0  0  0
 16 17  1  0  0  0  0
  2 18  1  0  0  0  0
 18 19  2  0  0  0  0
 19 20  1  0  0  0  0
 20 21  2  0  0  0  0
 21 22  1  0  0  0  0
 22 23  2  0  0  0  0
 23 18  1  0  0  0  0
M  END
>  <Work Package>
C

>  <Target ID>
P4_C_DM25

>  <Smiles>
CN(C(c1cccnc1)c2ccc(Cl)cc2F)c3ccccc3

>  <Status >
Completed - in test

>  <Target Proposed by>
Mycetos Github

>  <Synthesis by>
UCL

>  <logD>
3.474

$$$$
Chemistry 38
  StarDrop          2D                              

 24 25  0  0  0  0  0  0  0  0999 V2000
    7.5343   -3.1611    0.0000 C   0  0  0  0  0  0  0  0  0  0  0  0
    6.4941   -3.7594    0.0000 O   0  0  0  0  0  0  0  0  0  0  0  0
    5.1951   -3.0077    0.0000 C   0  0  0  0  0  0  0  0  0  0  0  0
    3.8941   -3.7560    0.0000 C   0  0  0  0  0  0  0  0  0  0  0  0
    2.5951   -3.0043    0.0000 N   0  0  0  0  0  0  0  0  0  0  0  0
    1.2941   -3.7526    0.0000 C   0  0  0  0  0  0  0  0  0  0  0  0
   -0.0049   -3.0010    0.0000 C   0  0  0  0  0  0  0  0  0  0  0  0
   -1.3058   -3.7493    0.0000 O   0  0  0  0  0  0  0  0  0  0  0  0
   -2.3445   -3.1482    0.0000 C   0  0  0  0  0  0  0  0  0  0  0  0
    2.5971   -1.5036    0.0000 C   0  0  0  0  0  0  0  0  0  0  0  0
    1.2990   -0.7500    0.0000 C   0  0  0  0  0  0  0  0  0  0  0  0
    1.2990    0.7500    0.0000 C   0  0  0  0  0  0  0  0  0  0  0  0
    0.0000    1.5000    0.0000 C   0  0  0  0  0  0  0  0  0  0  0  0
   -1.2990    0.7500    0.0000 C   0  0  0  0  0  0  0  0  0  0  0  0
   -1.2990   -0.7500    0.0000 N   0  0  0  0  0  0  0  0  0  0  0  0
    0.0000   -1.5000    0.0000 C   0  0  0  0  0  0  0  0  0  0  0  0
    3.8990   -0.7569    0.0000 C   0  0  0  0  0  0  0  0  0  0  0  0
    5.1957   -1.5111    0.0000 C   0  0  0  0  0  0  0  0  0  0  0  0
    6.4972   -0.7655    0.0000 C   0  0  0  0  0  0  0  0  0  0  0  0
    6.5022    0.7345    0.0000 C   0  0  0  0  0  0  0  0  0  0  0  0
    7.5435    1.3310    0.0000 Cl  0  0  0  0  0  0  0  0  0  0  0  0
    5.2057    1.4888    0.0000 C   0  0  0  0  0  0  0  0  0  0  0  0
    3.9042    0.7432    0.0000 C   0  0  0  0  0  0  0  0  0  0  0  0
    2.8670    1.3467    0.0000 F   0  0  0  0  0  0  0  0  0  0  0  0
  1  2  1  0  0  0  0
  2  3  1  0  0  0  0
  3  4  1  0  0  0  0
  4  5  1  0  0  0  0
  5  6  1  0  0  0  0
  6  7  1  0  0  0  0
  7  8  1  0  0  0  0
  8  9  1  0  0  0  0
  5 10  1  0  0  0  0
 10 11  1  0  0  0  0
 11 12  2  0  0  0  0
 12 13  1  0  0  0  0
 13 14  2  0  0  0  0
 14 15  1  0  0  0  0
 15 16  2  0  0  0  0
 16 11  1  0  0  0  0
 10 17  1  0  0  0  0
 17 18  2  0  0  0  0
 18 19  1  0  0  0  0
 19 20  2  0  0  0  0
 20 21  1  0  0  0  0
 20 22  1  0  0  0  0
 22 23  2  0  0  0  0
 23 17  1  0  0  0  0
 23 24  1  0  0  0  0
M  END
>  <Work Package>
C

>  <Target ID>
P4_C_DM8

>  <Smiles>
COCCN(CCOC)C(c1cccnc1)c2ccc(Cl)cc2F

>  <Status >
Completed - in test

>  <Target Proposed by>
Mycetos Github

>  <Synthesis by>
UCL

>  <logD>
1.933

$$$$
Chemistry 39
  StarDrop          2D                              

 36 39  0  0  0  0  0  0  0  0999 V2000
    3.6384   -0.9011    0.0000 C   0  0  0  0  0  0  0  0  0  0  0  0
    2.5988   -1.5004    0.0000 C   0  0  0  0  0  0  0  0  0  0  0  0
    2.5984   -2.7004    0.0000 C   0  0  0  0  0  0  0  0  0  0  0  0
    3.6377   -2.1009    0.0000 C   0  0  0  0  0  0  0  0  0  0  0  0
    1.2990   -0.7500    0.0000 C   0  0  0  0  0  0  0  0  0  0  0  0
    1.2990    0.7500    0.0000 C   0  0  0  0  0  0  0  0  0  0  0  0
    0.0000    1.5000    0.0000 C   0  0  0  0  0  0  0  0  0  0  0  0
   -1.2990    0.7500    0.0000 C   0  0  0  0  0  0  0  0  0  0  0  0
   -1.2990   -0.7500    0.0000 C   0  0  0  0  0  0  0  0  0  0  0  0
    0.0000   -1.5000    0.0000 C   0  0  0  0  0  0  0  0  0  0  0  0
   -2.6003    1.4977    0.0000 N   0  0  0  0  0  0  0  0  0  0  0  0
   -3.8990    0.7455    0.0000 C   0  0  0  0  0  0  0  0  0  0  0  0
   -5.2003    1.4932    0.0000 C   0  0  0  0  0  0  0  0  0  0  0  0
   -6.4994    0.7432    0.0000 C   0  0  0  0  0  0  0  0  0  0  0  0
   -7.7985    1.4932    0.0000 C   0  0  0  0  0  0  0  0  0  0  0  0
   -7.7985    2.9932    0.0000 C   0  0  0  0  0  0  0  0  0  0  0  0
   -6.4995    3.7432    0.0000 N   0  0  0  0  0  0  0  0  0  0  0  0
   -5.2004    2.9933    0.0000 C   0  0  0  0  0  0  0  0  0  0  0  0
   -3.8964   -0.7553    0.0000 C   0  0  0  0  0  0  0  0  0  0  0  0
   -2.5951   -1.5014    0.0000 C   0  0  0  0  0  0  0  0  0  0  0  0
   -2.5904   -3.0014    0.0000 C   0  0  0  0  0  0  0  0  0  0  0  0
   -3.8871   -3.7554    0.0000 C   0  0  0  0  0  0  0  0  0  0  0  0
   -3.8834   -4.9554    0.0000 Cl  0  0  0  0  0  0  0  0  0  0  0  0
   -5.1885   -3.0094    0.0000 C   0  0  0  0  0  0  0  0  0  0  0  0
   -5.1931   -1.5094    0.0000 C   0  0  0  0  0  0  0  0  0  0  0  0
   -6.2342   -0.9127    0.0000 F   0  0  0  0  0  0  0  0  0  0  0  0
   -2.6030    2.9985    0.0000 C   0  0  0  0  0  0  0  0  0  0  0  0
   -3.9023    3.7481    0.0000 C   0  0  0  0  0  0  0  0  0  0  0  0
   -3.9029    5.2481    0.0000 C   0  0  0  0  0  0  0  0  0  0  0  0
   -2.6041    5.9986    0.0000 C   0  0  0  0  0  0  0  0  0  0  0  0
   -1.3048    5.2491    0.0000 C   0  0  0  0  0  0  0  0  0  0  0  0
   -1.3042    3.7491    0.0000 C   0  0  0  0  0  0  0  0  0  0  0  0
   -2.6047    7.4994    0.0000 C   0  0  0  0  0  0  0  0  0  0  0  0
   -3.6438    8.0997    0.0000 C   0  0  0  0  0  0  0  0  0  0  0  0
   -1.5655    8.0995    0.0000 C   0  0  0  0  0  0  0  0  0  0  0  0
   -2.6046    8.6994    0.0000 C   0  0  0  0  0  0  0  0  0  0  0  0
  1  2  1  0  0  0  0
  2  3  1  0  0  0  0
  2  4  1  0  0  0  0
  2  5  1  0  0  0  0
  5  6  2  0  0  0  0
  6  7  1  0  0  0  0
  7  8  2  0  0  0  0
  8  9  1  0  0  0  0
  9 10  2  0  0  0  0
 10  5  1  0  0  0  0
  8 11  1  0  0  0  0
 11 12  1  0  0  0  0
 12 13  1  0  0  0  0
 13 14  2  0  0  0  0
 14 15  1  0  0  0  0
 15 16  2  0  0  0  0
 16 17  1  0  0  0  0
 17 18  2  0  0  0  0
 18 13  1  0  0  0  0
 12 19  1  0  0  0  0
 19 20  2  0  0  0  0
 20 21  1  0  0  0  0
 21 22  2  0  0  0  0
 22 23  1  0  0  0  0
 22 24  1  0  0  0  0
 24 25  2  0  0  0  0
 25 19  1  0  0  0  0
 25 26  1  0  0  0  0
 11 27  1  0  0  0  0
 27 28  2  0  0  0  0
 28 29  1  0  0  0  0
 29 30  2  0  0  0  0
 30 31  1  0  0  0  0
 31 32  2  0  0  0  0
 32 27  1  0  0  0  0
 30 33  1  0  0  0  0
 33 34  1  0  0  0  0
 33 35  1  0  0  0  0
 33 36  1  0  0  0  0
M  END
>  <Work Package>
C

>  <Target ID>
P4_C_DM9

>  <Smiles>
CC(C)(C)c1ccc(cc1)N(C(c2cccnc2)c3ccc(Cl)cc3F)c4ccc(cc4)C(C)(C)C

>  <Status >
Stopped - difficult synthesis

>  <Target Proposed by>
Mycetos Github

>  <Synthesis by>
UCL

>  <logD>
8.297

$$$$
Chemistry 44
  StarDrop          2D                              

 23 26  0  0  0  0  0  0  0  0999 V2000
    4.2817    0.2841    0.0000 F   0  0  0  0  0  0  0  0  0  0  0  0
    4.8964   -0.7465    0.0000 C   0  0  0  0  0  0  0  0  0  0  0  0
    6.3963   -0.7251    0.0000 C   0  0  0  0  0  0  0  0  0  0  0  0
    7.1647   -2.0133    0.0000 C   0  0  0  0  0  0  0  0  0  0  0  0
    8.3646   -1.9963    0.0000 Cl  0  0  0  0  0  0  0  0  0  0  0  0
    6.4333   -3.3229    0.0000 C   0  0  0  0  0  0  0  0  0  0  0  0
    4.9334   -3.3443    0.0000 C   0  0  0  0  0  0  0  0  0  0  0  0
    4.1649   -2.0560    0.0000 C   0  0  0  0  0  0  0  0  0  0  0  0
    2.6643   -2.0804    0.0000 C   0  0  0  0  0  0  0  0  0  0  0  0
    1.8975   -0.8028    0.0000 N   0  0  0  0  0  0  0  0  0  0  0  0
    0.9488    0.0000    0.0000 C   0  0  0  0  0  0  0  0  0  0  0  0
   -0.8393    0.0000    0.0000 C   0  0  0  0  0  0  0  0  0  0  0  0
   -1.8063   -1.3319    0.0000 C   0  0  0  0  0  0  0  0  0  0  0  0
   -0.6568   -0.6386    0.0000 C   0  0  0  0  0  0  0  0  0  0  0  0
    0.0000    0.6568    0.0000 C   0  0  0  0  0  0  0  0  0  0  0  0
    1.6421    0.6933    0.0000 C   0  0  0  0  0  0  0  0  0  0  0  0
   -1.0947    1.4779    0.0000 O   0  0  0  0  0  0  0  0  0  0  0  0
    1.9343   -3.3918    0.0000 C   0  0  0  0  0  0  0  0  0  0  0  0
    0.4345   -3.4184    0.0000 C   0  0  0  0  0  0  0  0  0  0  0  0
   -0.2924   -4.7305    0.0000 C   0  0  0  0  0  0  0  0  0  0  0  0
    0.4804   -6.0160    0.0000 C   0  0  0  0  0  0  0  0  0  0  0  0
    1.9802   -5.9895    0.0000 N   0  0  0  0  0  0  0  0  0  0  0  0
    2.7071   -4.6774    0.0000 C   0  0  0  0  0  0  0  0  0  0  0  0
  1  2  1  0  0  0  0
  2  3  2  0  0  0  0
  3  4  1  0  0  0  0
  4  5  1  0  0  0  0
  4  6  2  0  0  0  0
  6  7  1  0  0  0  0
  7  8  2  0  0  0  0
  8  2  1  0  0  0  0
  8  9  1  0  0  0  0
  9 10  1  0  0  0  0
 10 11  1  0  0  0  0
 11 12  1  0  0  0  0
 12 13  1  0  0  0  0
 13 14  1  0  0  0  0
 14 15  1  0  0  0  0
 15 16  1  0  0  0  0
 16 10  1  0  0  0  0
 15 17  1  0  0  0  0
 17 12  1  0  0  0  0
  9 18  1  0  0  0  0
 18 19  2  0  0  0  0
 19 20  1  0  0  0  0
 20 21  2  0  0  0  0
 21 22  1  0  0  0  0
 22 23  2  0  0  0  0
 23 18  1  0  0  0  0
M  END
>  <Work Package>
C

>  <Target ID>
P4_C_MX011

>  <Smiles>
Fc1cc(Cl)ccc1C(N2CC3CCC(C2)O3)c4cccnc4

>  <Status >
Not Started

>  <Target Proposed by>
Mycetos Github

>  <Synthesis by>
>  <logD>
2.552

$$$$
Chemistry 45
  StarDrop          2D                              

 20 22  0  0  0  0  0  0  0  0999 V2000
    2.3383   -1.3500    0.0000 F   0  0  0  0  0  0  0  0  0  0  0  0
    1.2990   -0.7500    0.0000 C   0  0  0  0  0  0  0  0  0  0  0  0
    1.2990    0.7500    0.0000 C   0  0  0  0  0  0  0  0  0  0  0  0
    0.0000    1.5000    0.0000 C   0  0  0  0  0  0  0  0  0  0  0  0
    0.0000    2.7000    0.0000 Cl  0  0  0  0  0  0  0  0  0  0  0  0
   -1.2990    0.7500    0.0000 C   0  0  0  0  0  0  0  0  0  0  0  0
   -1.2990   -0.7500    0.0000 C   0  0  0  0  0  0  0  0  0  0  0  0
    0.0000   -1.5000    0.0000 C   0  0  0  0  0  0  0  0  0  0  0  0
   -0.0031   -3.0008    0.0000 C   0  0  0  0  0  0  0  0  0  0  0  0
    1.2953   -3.7535    0.0000 C   0  0  0  0  0  0  0  0  0  0  0  0
    1.2948   -5.2535    0.0000 C   0  0  0  0  0  0  0  0  0  0  0  0
    2.5936   -6.0040    0.0000 C   0  0  0  0  0  0  0  0  0  0  0  0
    3.8929   -5.2545    0.0000 C   0  0  0  0  0  0  0  0  0  0  0  0
    3.8935   -3.7545    0.0000 N   0  0  0  0  0  0  0  0  0  0  0  0
    2.5947   -3.0040    0.0000 C   0  0  0  0  0  0  0  0  0  0  0  0
   -1.3039   -3.7494    0.0000 N   0  0  0  0  0  0  0  0  0  0  0  0
   -1.4469   -5.2298    0.0000 C   0  0  0  0  0  0  0  0  0  0  0  0
   -2.9152   -5.5365    0.0000 C   0  0  0  0  0  0  0  0  0  0  0  0
   -3.6607   -4.2349    0.0000 C   0  0  0  0  0  0  0  0  0  0  0  0
   -2.6531   -3.1237    0.0000 N   0  0  0  0  0  0  0  0  0  0  0  0
  1  2  1  0  0  0  0
  2  3  2  0  0  0  0
  3  4  1  0  0  0  0
  4  5  1  0  0  0  0
  4  6  2  0  0  0  0
  6  7  1  0  0  0  0
  7  8  2  0  0  0  0
  8  2  1  0  0  0  0
  8  9  1  0  0  0  0
  9 10  1  0  0  0  0
 10 11  2  0  0  0  0
 11 12  1  0  0  0  0
 12 13  2  0  0  0  0
 13 14  1  0  0  0  0
 14 15  2  0  0  0  0
 15 10  1  0  0  0  0
  9 16  1  0  0  0  0
 16 17  1  0  0  0  0
 17 18  2  0  0  0  0
 18 19  1  0  0  0  0
 19 20  2  0  0  0  0
 20 16  1  0  0  0  0
M  END
>  <Work Package>
C

>  <Target ID>
P4_C_MXF001

>  <Smiles>
Fc1cc(Cl)ccc1C(c2cccnc2)n3cccn3

>  <Status >
Completed - in test

>  <Target Proposed by>
Mycetos Github

>  <Synthesis by>
UCL

>  <logD>
3.055

$$$$
Chemistry 46
  StarDrop          2D                              

 20 22  0  0  0  0  0  0  0  0999 V2000
    2.3383   -1.3500    0.0000 F   0  0  0  0  0  0  0  0  0  0  0  0
    1.2990   -0.7500    0.0000 C   0  0  0  0  0  0  0  0  0  0  0  0
    1.2990    0.7500    0.0000 C   0  0  0  0  0  0  0  0  0  0  0  0
    0.0000    1.5000    0.0000 C   0  0  0  0  0  0  0  0  0  0  0  0
    0.0000    2.7000    0.0000 Cl  0  0  0  0  0  0  0  0  0  0  0  0
   -1.2990    0.7500    0.0000 C   0  0  0  0  0  0  0  0  0  0  0  0
   -1.2990   -0.7500    0.0000 C   0  0  0  0  0  0  0  0  0  0  0  0
    0.0000   -1.5000    0.0000 C   0  0  0  0  0  0  0  0  0  0  0  0
   -0.0031   -3.0008    0.0000 C   0  0  0  0  0  0  0  0  0  0  0  0
    1.2953   -3.7535    0.0000 C   0  0  0  0  0  0  0  0  0  0  0  0
    1.2948   -5.2535    0.0000 C   0  0  0  0  0  0  0  0  0  0  0  0
    2.5936   -6.0040    0.0000 C   0  0  0  0  0  0  0  0  0  0  0  0
    3.8929   -5.2545    0.0000 C   0  0  0  0  0  0  0  0  0  0  0  0
    3.8935   -3.7545    0.0000 N   0  0  0  0  0  0  0  0  0  0  0  0
    2.5947   -3.0040    0.0000 C   0  0  0  0  0  0  0  0  0  0  0  0
   -1.3039   -3.7494    0.0000 N   0  0  0  0  0  0  0  0  0  0  0  0
   -1.4469   -5.2298    0.0000 C   0  0  0  0  0  0  0  0  0  0  0  0
   -2.9152   -5.5365    0.0000 N   0  0  0  0  0  0  0  0  0  0  0  0
   -3.6607   -4.2349    0.0000 C   0  0  0  0  0  0  0  0  0  0  0  0
   -2.6531   -3.1237    0.0000 N   0  0  0  0  0  0  0  0  0  0  0  0
  1  2  1  0  0  0  0
  2  3  2  0  0  0  0
  3  4  1  0  0  0  0
  4  5  1  0  0  0  0
  4  6  2  0  0  0  0
  6  7  1  0  0  0  0
  7  8  2  0  0  0  0
  8  2  1  0  0  0  0
  8  9  1  0  0  0  0
  9 10  1  0  0  0  0
 10 11  2  0  0  0  0
 11 12  1  0  0  0  0
 12 13  2  0  0  0  0
 13 14  1  0  0  0  0
 14 15  2  0  0  0  0
 15 10  1  0  0  0  0
  9 16  1  0  0  0  0
 16 17  1  0  0  0  0
 17 18  2  0  0  0  0
 18 19  1  0  0  0  0
 19 20  2  0  0  0  0
 20 16  1  0  0  0  0
M  END
>  <Work Package>
C

>  <Target ID>
P4_C_MXF002

>  <Smiles>
Fc1cc(Cl)ccc1C(c2cccnc2)n3cncn3

>  <Status >
Completed - in test

>  <Target Proposed by>
Mycetos Github

>  <Synthesis by>
UCL

>  <logD>
2.47

$$$$
Chemistry 47
  StarDrop          2D                              

 22 24  0  0  0  0  0  0  0  0999 V2000
    2.3383   -1.3500    0.0000 F   0  0  0  0  0  0  0  0  0  0  0  0
    1.2990   -0.7500    0.0000 C   0  0  0  0  0  0  0  0  0  0  0  0
    1.2990    0.7500    0.0000 C   0  0  0  0  0  0  0  0  0  0  0  0
    0.0000    1.5000    0.0000 C   0  0  0  0  0  0  0  0  0  0  0  0
    0.0000    2.7000    0.0000 Cl  0  0  0  0  0  0  0  0  0  0  0  0
   -1.2990    0.7500    0.0000 C   0  0  0  0  0  0  0  0  0  0  0  0
   -1.2990   -0.7500    0.0000 C   0  0  0  0  0  0  0  0  0  0  0  0
    0.0000   -1.5000    0.0000 C   0  0  0  0  0  0  0  0  0  0  0  0
   -0.0031   -3.0008    0.0000 C   0  0  0  0  0  0  0  0  0  0  0  0
    1.2953   -3.7535    0.0000 N   0  0  0  0  0  0  0  0  0  0  0  0
    1.2948   -5.2535    0.0000 C   0  0  0  0  0  0  0  0  0  0  0  0
    2.5936   -6.0040    0.0000 C   0  0  0  0  0  0  0  0  0  0  0  0
    3.8929   -5.2545    0.0000 C   0  0  0  0  0  0  0  0  0  0  0  0
    4.9319   -5.8549    0.0000 O   0  0  0  0  0  0  0  0  0  0  0  0
    3.8935   -3.7545    0.0000 C   0  0  0  0  0  0  0  0  0  0  0  0
    2.5947   -3.0040    0.0000 C   0  0  0  0  0  0  0  0  0  0  0  0
   -1.3039   -3.7494    0.0000 C   0  0  0  0  0  0  0  0  0  0  0  0
   -1.3092   -5.2494    0.0000 C   0  0  0  0  0  0  0  0  0  0  0  0
   -2.6108   -5.9949    0.0000 C   0  0  0  0  0  0  0  0  0  0  0  0
   -3.9072   -5.2404    0.0000 C   0  0  0  0  0  0  0  0  0  0  0  0
   -3.9020   -3.7404    0.0000 N   0  0  0  0  0  0  0  0  0  0  0  0
   -2.6004   -2.9949    0.0000 C   0  0  0  0  0  0  0  0  0  0  0  0
  1  2  1  0  0  0  0
  2  3  2  0  0  0  0
  3  4  1  0  0  0  0
  4  5  1  0  0  0  0
  4  6  2  0  0  0  0
  6  7  1  0  0  0  0
  7  8  2  0  0  0  0
  8  2  1  0  0  0  0
  8  9  1  0  0  0  0
  9 10  1  0  0  0  0
 10 11  1  0  0  0  0
 11 12  1  0  0  0  0
 12 13  1  0  0  0  0
 13 14  2  0  0  0  0
 13 15  1  0  0  0  0
 15 16  1  0  0  0  0
 16 10  1  0  0  0  0
  9 17  1  0  0  0  0
 17 18  2  0  0  0  0
 18 19  1  0  0  0  0
 19 20  2  0  0  0  0
 20 21  1  0  0  0  0
 21 22  2  0  0  0  0
 22 17  1  0  0  0  0
M  END
>  <Work Package>
C

>  <Target ID>
P4_C_MXF003

>  <Smiles>
Fc1cc(Cl)ccc1C(N2CCC(=O)CC2)c3cccnc3

>  <Status >
Completed - in test

>  <Target Proposed by>
Mycetos Github

>  <Synthesis by>
UCL

>  <logD>
1.996

$$$$
Chemistry 48
  StarDrop          2D                              

 27 29  0  0  0  0  0  0  0  0999 V2000
   10.6201   -4.9301    0.0000 C   0  0  0  0  0  0  0  0  0  0  0  0
    9.5818   -5.5317    0.0000 C   0  0  0  0  0  0  0  0  0  0  0  0
    9.5839   -6.7317    0.0000 C   0  0  0  0  0  0  0  0  0  0  0  0
   10.6220   -6.1300    0.0000 C   0  0  0  0  0  0  0  0  0  0  0  0
    8.2804   -4.7840    0.0000 O   0  0  0  0  0  0  0  0  0  0  0  0
    6.9818   -5.5364    0.0000 C   0  0  0  0  0  0  0  0  0  0  0  0
    6.9840   -6.7364    0.0000 O   0  0  0  0  0  0  0  0  0  0  0  0
    5.6857   -4.7918    0.0000 N   0  0  0  0  0  0  0  0  0  0  0  0
    4.2368   -5.1800    0.0000 C   0  0  0  0  0  0  0  0  0  0  0  0
    3.8933   -3.7570    0.0000 C   0  0  0  0  0  0  0  0  0  0  0  0
    5.2975   -3.3429    0.0000 C   0  0  0  0  0  0  0  0  0  0  0  0
    2.5951   -3.0039    0.0000 O   0  0  0  0  0  0  0  0  0  0  0  0
    2.5973   -1.5031    0.0000 C   0  0  0  0  0  0  0  0  0  0  0  0
    1.2990   -0.7500    0.0000 C   0  0  0  0  0  0  0  0  0  0  0  0
    1.2990    0.7500    0.0000 C   0  0  0  0  0  0  0  0  0  0  0  0
    0.0000    1.5000    0.0000 C   0  0  0  0  0  0  0  0  0  0  0  0
   -1.2990    0.7500    0.0000 C   0  0  0  0  0  0  0  0  0  0  0  0
   -1.2990   -0.7500    0.0000 N   0  0  0  0  0  0  0  0  0  0  0  0
    0.0000   -1.5000    0.0000 C   0  0  0  0  0  0  0  0  0  0  0  0
    3.8982   -0.7550    0.0000 C   0  0  0  0  0  0  0  0  0  0  0  0
    5.1951   -1.5089    0.0000 C   0  0  0  0  0  0  0  0  0  0  0  0
    6.4964   -0.7630    0.0000 C   0  0  0  0  0  0  0  0  0  0  0  0
    6.5011    0.7370    0.0000 C   0  0  0  0  0  0  0  0  0  0  0  0
    7.5422    1.3338    0.0000 Cl  0  0  0  0  0  0  0  0  0  0  0  0
    5.2044    1.4911    0.0000 C   0  0  0  0  0  0  0  0  0  0  0  0
    3.9030    0.7451    0.0000 C   0  0  0  0  0  0  0  0  0  0  0  0
    2.8657    1.3483    0.0000 F   0  0  0  0  0  0  0  0  0  0  0  0
  1  2  1  0  0  0  0
  2  3  1  0  0  0  0
  2  4  1  0  0  0  0
  2  5  1  0  0  0  0
  5  6  1  0  0  0  0
  6  7  2  0  0  0  0
  6  8  1  0  0  0  0
  8  9  1  0  0  0  0
  9 10  1  0  0  0  0
 10 11  1  0  0  0  0
 11  8  1  0  0  0  0
 10 12  1  0  0  0  0
 12 13  1  0  0  0  0
 13 14  1  0  0  0  0
 14 15  2  0  0  0  0
 15 16  1  0  0  0  0
 16 17  2  0  0  0  0
 17 18  1  0  0  0  0
 18 19  2  0  0  0  0
 19 14  1  0  0  0  0
 13 20  1  0  0  0  0
 20 21  2  0  0  0  0
 21 22  1  0  0  0  0
 22 23  2  0  0  0  0
 23 24  1  0  0  0  0
 23 25  1  0  0  0  0
 25 26  2  0  0  0  0
 26 20  1  0  0  0  0
 26 27  1  0  0  0  0
M  END
>  <Work Package>
C

>  <Target ID>
P4_C_MXF011

>  <Smiles>
CC(C)(C)OC(=O)N1CC(C1)OC(c2cccnc2)c3ccc(Cl)cc3F

>  <Status >
Completed - in test

>  <Target Proposed by>
Mycetos Github

>  <Synthesis by>
UCL

>  <logD>
3.836

$$$$
Chemistry 59
  StarDrop          2D                              

 22 24  0  0  0  0  0  0  0  0999 V2000
    1.8530   -3.0272    0.0000 O   0  0  0  0  0  0  0  0  0  0  0  0
    2.2638   -1.8997    0.0000 C   0  0  0  0  0  0  0  0  0  0  0  0
    1.2990   -0.7500    0.0000 C   0  0  0  0  0  0  0  0  0  0  0  0
    1.2990    0.7500    0.0000 C   0  0  0  0  0  0  0  0  0  0  0  0
    0.0000    1.5000    0.0000 C   0  0  0  0  0  0  0  0  0  0  0  0
   -1.2990    0.7500    0.0000 C   0  0  0  0  0  0  0  0  0  0  0  0
   -1.2990   -0.7500    0.0000 C   0  0  0  0  0  0  0  0  0  0  0  0
    0.0000   -1.5000    0.0000 C   0  0  0  0  0  0  0  0  0  0  0  0
    3.7419   -1.6400    0.0000 C   0  0  0  0  0  0  0  0  0  0  0  0
    4.7054   -2.7897    0.0000 C   0  0  0  0  0  0  0  0  0  0  0  0
    6.1828   -2.5302    0.0000 C   0  0  0  0  0  0  0  0  0  0  0  0
    6.6967   -1.1209    0.0000 C   0  0  0  0  0  0  0  0  0  0  0  0
    7.8786   -0.9133    0.0000 Cl  0  0  0  0  0  0  0  0  0  0  0  0
    5.7332    0.0287    0.0000 C   0  0  0  0  0  0  0  0  0  0  0  0
    4.2559   -0.2308    0.0000 C   0  0  0  0  0  0  0  0  0  0  0  0
    0.7858   -2.1601    0.0000 C   0  0  0  0  0  0  0  0  0  0  0  0
    0.2725   -3.5695    0.0000 C   0  0  0  0  0  0  0  0  0  0  0  0
   -1.2047   -3.8298    0.0000 C   0  0  0  0  0  0  0  0  0  0  0  0
   -2.1687   -2.6805    0.0000 C   0  0  0  0  0  0  0  0  0  0  0  0
   -1.6555   -1.2711    0.0000 C   0  0  0  0  0  0  0  0  0  0  0  0
   -0.1782   -1.0108    0.0000 C   0  0  0  0  0  0  0  0  0  0  0  0
    0.2324    0.1167    0.0000 Br  0  0  0  0  0  0  0  0  0  0  0  0
  1  2  1  0  0  0  0
  2  3  1  0  0  0  0
  3  4  2  0  0  0  0
  4  5  1  0  0  0  0
  5  6  2  0  0  0  0
  6  7  1  0  0  0  0
  7  8  2  0  0  0  0
  8  3  1  0  0  0  0
  2  9  1  0  0  0  0
  9 10  2  0  0  0  0
 10 11  1  0  0  0  0
 11 12  2  0  0  0  0
 12 13  1  0  0  0  0
 12 14  1  0  0  0  0
 14 15  2  0  0  0  0
 15  9  1  0  0  0  0
  2 16  1  0  0  0  0
 16 17  2  0  0  0  0
 17 18  1  0  0  0  0
 18 19  2  0  0  0  0
 19 20  1  0  0  0  0
 20 21  2  0  0  0  0
 21 16  1  0  0  0  0
 21 22  1  0  0  0  0
M  END
>  <Work Package>
D

>  <Target ID>
P4_D_HPD031-2

>  <Smiles>
OC(c1ccccc1)(c2ccc(Cl)cc2)c3ccccc3Br

>  <Status >
Ongoing

>  <Target Proposed by>
Mycetos Github

>  <Synthesis by>
HDuong

>  <logD>
4.081

$$$$
Chemistry 60
  StarDrop          2D                              

 22 24  0  0  0  0  0  0  0  0999 V2000
    1.0819   -2.1078    0.0000 O   0  0  0  0  0  0  0  0  0  0  0  0
    2.2637   -1.8996    0.0000 C   0  0  0  0  0  0  0  0  0  0  0  0
    1.2990   -0.7500    0.0000 C   0  0  0  0  0  0  0  0  0  0  0  0
    1.2990    0.7500    0.0000 C   0  0  0  0  0  0  0  0  0  0  0  0
    0.0000    1.5000    0.0000 C   0  0  0  0  0  0  0  0  0  0  0  0
   -1.2990    0.7500    0.0000 C   0  0  0  0  0  0  0  0  0  0  0  0
   -1.2990   -0.7500    0.0000 C   0  0  0  0  0  0  0  0  0  0  0  0
    0.0000   -1.5000    0.0000 C   0  0  0  0  0  0  0  0  0  0  0  0
    2.7768   -0.4892    0.0000 C   0  0  0  0  0  0  0  0  0  0  0  0
    1.8124    0.6597    0.0000 C   0  0  0  0  0  0  0  0  0  0  0  0
    2.3252    2.0693    0.0000 C   0  0  0  0  0  0  0  0  0  0  0  0
    3.8024    2.3300    0.0000 C   0  0  0  0  0  0  0  0  0  0  0  0
    4.2126    3.4577    0.0000 Cl  0  0  0  0  0  0  0  0  0  0  0  0
    4.7668    1.1811    0.0000 C   0  0  0  0  0  0  0  0  0  0  0  0
    4.2540   -0.2285    0.0000 C   0  0  0  0  0  0  0  0  0  0  0  0
    3.2279   -3.0498    0.0000 C   0  0  0  0  0  0  0  0  0  0  0  0
    2.7142   -4.4591    0.0000 C   0  0  0  0  0  0  0  0  0  0  0  0
    3.6778   -5.6086    0.0000 C   0  0  0  0  0  0  0  0  0  0  0  0
    5.1551   -5.3488    0.0000 C   0  0  0  0  0  0  0  0  0  0  0  0
    5.6688   -3.9395    0.0000 C   0  0  0  0  0  0  0  0  0  0  0  0
    4.7052   -2.7900    0.0000 C   0  0  0  0  0  0  0  0  0  0  0  0
    5.1162   -1.6626    0.0000 Br  0  0  0  0  0  0  0  0  0  0  0  0
  1  2  1  0  0  0  0
  2  3  1  0  0  0  0
  3  4  1  0  0  0  0
  4  5  1  0  0  0  0
  5  6  1  0  0  0  0
  6  7  1  0  0  0  0
  7  8  1  0  0  0  0
  8  3  1  0  0  0  0
  2  9  1  0  0  0  0
  9 10  2  0  0  0  0
 10 11  1  0  0  0  0
 11 12  2  0  0  0  0
 12 13  1  0  0  0  0
 12 14  1  0  0  0  0
 14 15  2  0  0  0  0
 15  9  1  0  0  0  0
  2 16  1  0  0  0  0
 16 17  2  0  0  0  0
 17 18  1  0  0  0  0
 18 19  2  0  0  0  0
 19 20  1  0  0  0  0
 20 21  2  0  0  0  0
 21 16  1  0  0  0  0
 21 22  1  0  0  0  0
M  END
>  <Work Package>
D

>  <Target ID>
P4_D_HPD032-2

>  <Smiles>
OC(C1CCCCC1)(c2ccc(Cl)cc2)c3ccccc3Br

>  <Status >
Ongoing

>  <Target Proposed by>
Mycetos Github

>  <Synthesis by>
HDuong

>  <logD>
5.586

$$$$
Chemistry 57
  StarDrop          2D                              

 19 20  0  0  0  0  0  0  0  0999 V2000
    1.5601   -2.1013    0.0000 O   0  0  0  0  0  0  0  0  0  0  0  0
    2.5988   -1.5004    0.0000 C   0  0  0  0  0  0  0  0  0  0  0  0
    2.6015   -3.0012    0.0000 C   0  0  0  0  0  0  0  0  0  0  0  0
    3.9021   -3.7502    0.0000 C   0  0  0  0  0  0  0  0  0  0  0  0
    3.9048   -5.2510    0.0000 C   0  0  0  0  0  0  0  0  0  0  0  0
    4.9447   -5.8498    0.0000 C   0  0  0  0  0  0  0  0  0  0  0  0
    1.2990   -0.7500    0.0000 C   0  0  0  0  0  0  0  0  0  0  0  0
    1.2990    0.7500    0.0000 C   0  0  0  0  0  0  0  0  0  0  0  0
    0.0000    1.5000    0.0000 C   0  0  0  0  0  0  0  0  0  0  0  0
   -1.2990    0.7500    0.0000 C   0  0  0  0  0  0  0  0  0  0  0  0
   -2.3383    1.3500    0.0000 Br  0  0  0  0  0  0  0  0  0  0  0  0
   -1.2990   -0.7500    0.0000 C   0  0  0  0  0  0  0  0  0  0  0  0
    0.0000   -1.5000    0.0000 C   0  0  0  0  0  0  0  0  0  0  0  0
    3.8990   -0.7507    0.0000 C   0  0  0  0  0  0  0  0  0  0  0  0
    5.1977   -1.5013    0.0000 C   0  0  0  0  0  0  0  0  0  0  0  0
    6.4971   -0.7520    0.0000 N   0  0  0  0  0  0  0  0  0  0  0  0
    6.4979    0.7480    0.0000 C   0  0  0  0  0  0  0  0  0  0  0  0
    5.1992    1.4987    0.0000 C   0  0  0  0  0  0  0  0  0  0  0  0
    3.8998    0.7493    0.0000 C   0  0  0  0  0  0  0  0  0  0  0  0
  1  2  1  0  0  0  0
  2  3  1  0  0  0  0
  3  4  1  0  0  0  0
  4  5  1  0  0  0  0
  5  6  1  0  0  0  0
  2  7  1  0  0  0  0
  7  8  2  0  0  0  0
  8  9  1  0  0  0  0
  9 10  2  0  0  0  0
 10 11  1  0  0  0  0
 10 12  1  0  0  0  0
 12 13  2  0  0  0  0
 13  7  1  0  0  0  0
  2 14  1  0  0  0  0
 14 15  2  0  0  0  0
 15 16  1  0  0  0  0
 16 17  2  0  0  0  0
 17 18  1  0  0  0  0
 18 19  2  0  0  0  0
 19 14  1  0  0  0  0
M  END
>  <Work Package>
D

>  <Target ID>
P4_D_HPD033-2P4

>  <Smiles>
CCCCC(O)(c1ccc(Br)cc1)c2cccnc2

>  <Status >
Completed - in test

>  <Target Proposed by>
Mycetos Github

>  <Synthesis by>
HDuong

>  <logD>
3.783

$$$$
Chemistry 56
  StarDrop          2D                              

 21 23  0  0  0  0  0  0  0  0999 V2000
    2.3383   -1.3500    0.0000 Cl  0  0  0  0  0  0  0  0  0  0  0  0
    1.2990   -0.7500    0.0000 C   0  0  0  0  0  0  0  0  0  0  0  0
    1.2990    0.7500    0.0000 C   0  0  0  0  0  0  0  0  0  0  0  0
    0.0000    1.5000    0.0000 C   0  0  0  0  0  0  0  0  0  0  0  0
    0.0000   -1.5000    0.0000 C   0  0  0  0  0  0  0  0  0  0  0  0
   -1.2990   -0.7500    0.0000 C   0  0  0  0  0  0  0  0  0  0  0  0
   -1.2990    0.7500    0.0000 C   0  0  0  0  0  0  0  0  0  0  0  0
   -2.5988    1.5004    0.0000 C   0  0  0  0  0  0  0  0  0  0  0  0
   -2.5983    3.0012    0.0000 C   0  0  0  0  0  0  0  0  0  0  0  0
   -1.2991    3.7507    0.0000 C   0  0  0  0  0  0  0  0  0  0  0  0
   -1.2986    5.2507    0.0000 C   0  0  0  0  0  0  0  0  0  0  0  0
   -2.5974    6.0012    0.0000 C   0  0  0  0  0  0  0  0  0  0  0  0
   -3.8967    5.2516    0.0000 C   0  0  0  0  0  0  0  0  0  0  0  0
   -3.8971    3.7516    0.0000 C   0  0  0  0  0  0  0  0  0  0  0  0
   -2.5992    0.3004    0.0000 O   0  0  0  0  0  0  0  0  0  0  0  0
   -3.8990    0.7508    0.0000 C   0  0  0  0  0  0  0  0  0  0  0  0
   -3.9000   -0.7492    0.0000 C   0  0  0  0  0  0  0  0  0  0  0  0
   -5.1995   -1.4984    0.0000 N   0  0  0  0  0  0  0  0  0  0  0  0
   -6.4980   -0.7476    0.0000 C   0  0  0  0  0  0  0  0  0  0  0  0
   -6.4971    0.7524    0.0000 C   0  0  0  0  0  0  0  0  0  0  0  0
   -5.1976    1.5016    0.0000 C   0  0  0  0  0  0  0  0  0  0  0  0
  1  2  1  0  0  0  0
  2  3  1  0  0  0  0
  3  4  2  0  0  0  0
  2  5  2  0  0  0  0
  5  6  1  0  0  0  0
  6  7  2  0  0  0  0
  7  4  1  0  0  0  0
  7  8  1  0  0  0  0
  8  9  1  0  0  0  0
  9 10  1  0  0  0  0
 10 11  1  0  0  0  0
 11 12  1  0  0  0  0
 12 13  1  0  0  0  0
 13 14  1  0  0  0  0
 14  9  1  0  0  0  0
  8 15  1  0  0  0  0
  8 16  1  0  0  0  0
 16 17  2  0  0  0  0
 17 18  1  0  0  0  0
 18 19  2  0  0  0  0
 19 20  1  0  0  0  0
 20 21  2  0  0  0  0
 21 16  1  0  0  0  0
M  END
>  <Work Package>
D

>  <Target ID>
P4_D_HPD033-3P3

>  <Smiles>
OC(C1CCCCC1)(c2ccc(Cl)cc2)c3cccnc3

>  <Status >
Completed - in test

>  <Target Proposed by>
Mycetos Github

>  <Synthesis by>
HDuong

>  <logD>
3.708

$$$$
Chemistry 58
  StarDrop          2D                              

 20 22  0  0  0  0  0  0  0  0999 V2000
    2.3662   -3.1177    0.0000 O   0  0  0  0  0  0  0  0  0  0  0  0
    2.7770   -1.9902    0.0000 C   0  0  0  0  0  0  0  0  0  0  0  0
    1.2990   -2.2506    0.0000 C   0  0  0  0  0  0  0  0  0  0  0  0
    1.1610   -3.7314    0.0000 C   0  0  0  0  0  0  0  0  0  0  0  0
   -0.3063   -4.0430    0.0000 C   0  0  0  0  0  0  0  0  0  0  0  0
   -1.0561   -2.7438    0.0000 C   0  0  0  0  0  0  0  0  0  0  0  0
   -0.0522   -1.6293    0.0000 C   0  0  0  0  0  0  0  0  0  0  0  0
    1.8123   -0.8405    0.0000 C   0  0  0  0  0  0  0  0  0  0  0  0
    2.3253    0.5690    0.0000 C   0  0  0  0  0  0  0  0  0  0  0  0
    1.3611    1.7181    0.0000 C   0  0  0  0  0  0  0  0  0  0  0  0
   -0.1161    1.4576    0.0000 C   0  0  0  0  0  0  0  0  0  0  0  0
   -0.8875    2.3769    0.0000 Br  0  0  0  0  0  0  0  0  0  0  0  0
   -0.6291    0.0481    0.0000 C   0  0  0  0  0  0  0  0  0  0  0  0
    0.3351   -1.1010    0.0000 C   0  0  0  0  0  0  0  0  0  0  0  0
    4.2552   -1.7305    0.0000 C   0  0  0  0  0  0  0  0  0  0  0  0
    5.2186   -2.8802    0.0000 C   0  0  0  0  0  0  0  0  0  0  0  0
    6.6960   -2.6207    0.0000 C   0  0  0  0  0  0  0  0  0  0  0  0
    7.2099   -1.2114    0.0000 C   0  0  0  0  0  0  0  0  0  0  0  0
    6.2465   -0.0618    0.0000 N   0  0  0  0  0  0  0  0  0  0  0  0
    4.7691   -0.3213    0.0000 C   0  0  0  0  0  0  0  0  0  0  0  0
  1  2  1  0  0  0  0
  2  3  1  0  0  0  0
  3  4  1  0  0  0  0
  4  5  1  0  0  0  0
  5  6  1  0  0  0  0
  6  7  1  0  0  0  0
  7  3  1  0  0  0  0
  2  8  1  0  0  0  0
  8  9  2  0  0  0  0
  9 10  1  0  0  0  0
 10 11  2  0  0  0  0
 11 12  1  0  0  0  0
 11 13  1  0  0  0  0
 13 14  2  0  0  0  0
 14  8  1  0  0  0  0
  2 15  1  0  0  0  0
 15 16  2  0  0  0  0
 16 17  1  0  0  0  0
 17 18  2  0  0  0  0
 18 19  1  0  0  0  0
 19 20  2  0  0  0  0
 20 15  1  0  0  0  0
M  END
>  <Work Package>
D

>  <Target ID>
P4_D_HPD034-4

>  <Smiles>
OC(C1CCCC1)(c2ccc(Br)cc2)c3cccnc3

>  <Status >
Ongoing

>  <Target Proposed by>
Mycetos Github

>  <Synthesis by>
HDuong

>  <logD>
3.751

$$$$
Chemistry 61
  StarDrop          2D                              

 22 24  0  0  0  0  0  0  0  0999 V2000
    1.8530   -3.0272    0.0000 O   0  0  0  0  0  0  0  0  0  0  0  0
    2.2638   -1.8997    0.0000 C   0  0  0  0  0  0  0  0  0  0  0  0
    1.2990   -0.7500    0.0000 C   0  0  0  0  0  0  0  0  0  0  0  0
    1.2990    0.7500    0.0000 C   0  0  0  0  0  0  0  0  0  0  0  0
    0.0000    1.5000    0.0000 C   0  0  0  0  0  0  0  0  0  0  0  0
   -1.2990    0.7500    0.0000 C   0  0  0  0  0  0  0  0  0  0  0  0
   -1.2990   -0.7500    0.0000 C   0  0  0  0  0  0  0  0  0  0  0  0
    0.0000   -1.5000    0.0000 C   0  0  0  0  0  0  0  0  0  0  0  0
    3.7419   -1.6400    0.0000 C   0  0  0  0  0  0  0  0  0  0  0  0
    4.7054   -2.7897    0.0000 C   0  0  0  0  0  0  0  0  0  0  0  0
    6.1828   -2.5302    0.0000 C   0  0  0  0  0  0  0  0  0  0  0  0
    6.6967   -1.1209    0.0000 C   0  0  0  0  0  0  0  0  0  0  0  0
    7.8786   -0.9133    0.0000 Cl  0  0  0  0  0  0  0  0  0  0  0  0
    5.7332    0.0287    0.0000 C   0  0  0  0  0  0  0  0  0  0  0  0
    4.2559   -0.2308    0.0000 C   0  0  0  0  0  0  0  0  0  0  0  0
    0.7858   -2.1601    0.0000 C   0  0  0  0  0  0  0  0  0  0  0  0
    0.2725   -3.5695    0.0000 C   0  0  0  0  0  0  0  0  0  0  0  0
   -1.2047   -3.8298    0.0000 C   0  0  0  0  0  0  0  0  0  0  0  0
   -2.1687   -2.6805    0.0000 C   0  0  0  0  0  0  0  0  0  0  0  0
   -3.3505   -2.8887    0.0000 Br  0  0  0  0  0  0  0  0  0  0  0  0
   -1.6555   -1.2711    0.0000 C   0  0  0  0  0  0  0  0  0  0  0  0
   -0.1782   -1.0108    0.0000 C   0  0  0  0  0  0  0  0  0  0  0  0
  1  2  1  0  0  0  0
  2  3  1  0  0  0  0
  3  4  2  0  0  0  0
  4  5  1  0  0  0  0
  5  6  2  0  0  0  0
  6  7  1  0  0  0  0
  7  8  2  0  0  0  0
  8  3  1  0  0  0  0
  2  9  1  0  0  0  0
  9 10  2  0  0  0  0
 10 11  1  0  0  0  0
 11 12  2  0  0  0  0
 12 13  1  0  0  0  0
 12 14  1  0  0  0  0
 14 15  2  0  0  0  0
 15  9  1  0  0  0  0
  2 16  1  0  0  0  0
 16 17  2  0  0  0  0
 17 18  1  0  0  0  0
 18 19  2  0  0  0  0
 19 20  1  0  0  0  0
 19 21  1  0  0  0  0
 21 22  2  0  0  0  0
 22 16  1  0  0  0  0
M  END
>  <Work Package>
D

>  <Target ID>
P4_D_HPD041-2

>  <Smiles>
OC(c1ccccc1)(c2ccc(Cl)cc2)c3ccc(Br)cc3

>  <Status >
Ongoing

>  <Target Proposed by>
Mycetos Github

>  <Synthesis by>
HDuong

>  <logD>
4.081

$$$$
Chemistry 62
  StarDrop          2D                              

 22 24  0  0  0  0  0  0  0  0999 V2000
    1.8530   -3.0272    0.0000 O   0  0  0  0  0  0  0  0  0  0  0  0
    2.2638   -1.8997    0.0000 C   0  0  0  0  0  0  0  0  0  0  0  0
    1.2990   -0.7500    0.0000 C   0  0  0  0  0  0  0  0  0  0  0  0
    1.2990    0.7500    0.0000 C   0  0  0  0  0  0  0  0  0  0  0  0
    0.0000    1.5000    0.0000 C   0  0  0  0  0  0  0  0  0  0  0  0
   -1.2990    0.7500    0.0000 C   0  0  0  0  0  0  0  0  0  0  0  0
   -2.3383    1.3500    0.0000 Cl  0  0  0  0  0  0  0  0  0  0  0  0
   -1.2990   -0.7500    0.0000 C   0  0  0  0  0  0  0  0  0  0  0  0
    0.0000   -1.5000    0.0000 C   0  0  0  0  0  0  0  0  0  0  0  0
    3.7419   -1.6400    0.0000 C   0  0  0  0  0  0  0  0  0  0  0  0
    4.7054   -2.7897    0.0000 C   0  0  0  0  0  0  0  0  0  0  0  0
    6.1828   -2.5302    0.0000 C   0  0  0  0  0  0  0  0  0  0  0  0
    6.6967   -1.1209    0.0000 C   0  0  0  0  0  0  0  0  0  0  0  0
    7.8786   -0.9133    0.0000 Br  0  0  0  0  0  0  0  0  0  0  0  0
    5.7332    0.0287    0.0000 C   0  0  0  0  0  0  0  0  0  0  0  0
    4.2559   -0.2308    0.0000 C   0  0  0  0  0  0  0  0  0  0  0  0
    0.7858   -2.1601    0.0000 C   0  0  0  0  0  0  0  0  0  0  0  0
    0.2725   -3.5695    0.0000 C   0  0  0  0  0  0  0  0  0  0  0  0
   -1.2047   -3.8298    0.0000 C   0  0  0  0  0  0  0  0  0  0  0  0
   -2.1687   -2.6805    0.0000 C   0  0  0  0  0  0  0  0  0  0  0  0
   -1.6555   -1.2711    0.0000 N   0  0  0  0  0  0  0  0  0  0  0  0
   -0.1782   -1.0108    0.0000 C   0  0  0  0  0  0  0  0  0  0  0  0
  1  2  1  0  0  0  0
  2  3  1  0  0  0  0
  3  4  2  0  0  0  0
  4  5  1  0  0  0  0
  5  6  2  0  0  0  0
  6  7  1  0  0  0  0
  6  8  1  0  0  0  0
  8  9  2  0  0  0  0
  9  3  1  0  0  0  0
  2 10  1  0  0  0  0
 10 11  2  0  0  0  0
 11 12  1  0  0  0  0
 12 13  2  0  0  0  0
 13 14  1  0  0  0  0
 13 15  1  0  0  0  0
 15 16  2  0  0  0  0
 16 10  1  0  0  0  0
  2 17  1  0  0  0  0
 17 18  2  0  0  0  0
 18 19  1  0  0  0  0
 19 20  2  0  0  0  0
 20 21  1  0  0  0  0
 21 22  2  0  0  0  0
 22 17  1  0  0  0  0
M  END
>  <Work Package>
D

>  <Target ID>
P4_D_HPD043-1

>  <Smiles>
OC(c1ccc(Cl)cc1)(c2ccc(Br)cc2)c3cccnc3

>  <Status >
Ongoing

>  <Target Proposed by>
Mycetos Github

>  <Synthesis by>
HDuong

>  <logD>
3.344

$$$$
Chemistry 49
  StarDrop          2D                              

 20 23  0  0  0  0  0  0  0  0999 V2000
    2.7669   -0.6062    0.0000 O   0  0  0  0  0  0  0  0  0  0  0  0
    2.4133   -1.7530    0.0000 C   0  0  0  0  0  0  0  0  0  0  0  0
    3.3924   -2.8731    0.0000 C   0  0  0  0  0  0  0  0  0  0  0  0
    2.9079   -4.2927    0.0000 C   0  0  0  0  0  0  0  0  0  0  0  0
    3.8950   -5.4221    0.0000 C   0  0  0  0  0  0  0  0  0  0  0  0
    5.3667   -5.1319    0.0000 C   0  0  0  0  0  0  0  0  0  0  0  0
    5.8512   -3.7123    0.0000 N   0  0  0  0  0  0  0  0  0  0  0  0
    4.8641   -2.5829    0.0000 C   0  0  0  0  0  0  0  0  0  0  0  0
    1.2990   -0.7500    0.0000 C   0  0  0  0  0  0  0  0  0  0  0  0
    1.2990    0.7500    0.0000 C   0  0  0  0  0  0  0  0  0  0  0  0
    0.0000    1.5000    0.0000 C   0  0  0  0  0  0  0  0  0  0  0  0
   -1.2990    0.7500    0.0000 C   0  0  0  0  0  0  0  0  0  0  0  0
   -1.2990   -0.7500    0.0000 C   0  0  0  0  0  0  0  0  0  0  0  0
    0.0000   -1.5000    0.0000 C   0  0  0  0  0  0  0  0  0  0  0  0
    0.3114   -2.9665    0.0000 C   0  0  0  0  0  0  0  0  0  0  0  0
   -0.5701   -4.1788    0.0000 C   0  0  0  0  0  0  0  0  0  0  0  0
    0.0400   -5.5491    0.0000 C   0  0  0  0  0  0  0  0  0  0  0  0
    1.5318   -5.7059    0.0000 C   0  0  0  0  0  0  0  0  0  0  0  0
    2.4135   -4.4923    0.0000 C   0  0  0  0  0  0  0  0  0  0  0  0
    1.8032   -3.1233    0.0000 C   0  0  0  0  0  0  0  0  0  0  0  0
  1  2  1  0  0  0  0
  2  3  1  0  0  0  0
  3  4  2  0  0  0  0
  4  5  1  0  0  0  0
  5  6  2  0  0  0  0
  6  7  1  0  0  0  0
  7  8  2  0  0  0  0
  8  3  1  0  0  0  0
  2  9  1  0  0  0  0
  9 10  2  0  0  0  0
 10 11  1  0  0  0  0
 11 12  2  0  0  0  0
 12 13  1  0  0  0  0
 13 14  2  0  0  0  0
 14  9  1  0  0  0  0
 14 15  1  0  0  0  0
 15 16  2  0  0  0  0
 16 17  1  0  0  0  0
 17 18  2  0  0  0  0
 18 19  1  0  0  0  0
 19 20  2  0  0  0  0
 20  2  1  0  0  0  0
 20 15  1  0  0  0  0
M  END
>  <Work Package>
D

>  <Target ID>
P4_D_MXF004

>  <Smiles>
OC1(c2cccnc2)c3ccccc3c4ccccc14

>  <Status >
Completed - in test

>  <Target Proposed by>
Mycetos Github

>  <Synthesis by>
HDuong

>  <logD>
2.007

$$$$
Chemistry 50
  StarDrop          2D                              

 17 18  0  0  0  0  0  0  0  0999 V2000
    6.2391   -0.9061    0.0000 C   0  0  0  0  0  0  0  0  0  0  0  0
    5.1988   -1.5042    0.0000 C   0  0  0  0  0  0  0  0  0  0  0  0
    3.8999   -0.7523    0.0000 C   0  0  0  0  0  0  0  0  0  0  0  0
    2.5988   -1.5004    0.0000 C   0  0  0  0  0  0  0  0  0  0  0  0
    2.5999   -0.3004    0.0000 O   0  0  0  0  0  0  0  0  0  0  0  0
    1.2990   -0.7500    0.0000 C   0  0  0  0  0  0  0  0  0  0  0  0
    1.2990    0.7500    0.0000 C   0  0  0  0  0  0  0  0  0  0  0  0
    0.0000    1.5000    0.0000 C   0  0  0  0  0  0  0  0  0  0  0  0
   -1.2990    0.7500    0.0000 C   0  0  0  0  0  0  0  0  0  0  0  0
   -1.2990   -0.7500    0.0000 C   0  0  0  0  0  0  0  0  0  0  0  0
    0.0000   -1.5000    0.0000 C   0  0  0  0  0  0  0  0  0  0  0  0
    2.5996   -3.0013    0.0000 C   0  0  0  0  0  0  0  0  0  0  0  0
    1.3010   -3.7520    0.0000 C   0  0  0  0  0  0  0  0  0  0  0  0
    1.3018   -5.2520    0.0000 C   0  0  0  0  0  0  0  0  0  0  0  0
    2.6012   -6.0013    0.0000 C   0  0  0  0  0  0  0  0  0  0  0  0
    3.8998   -5.2506    0.0000 N   0  0  0  0  0  0  0  0  0  0  0  0
    3.8990   -3.7506    0.0000 C   0  0  0  0  0  0  0  0  0  0  0  0
  1  2  1  0  0  0  0
  2  3  1  0  0  0  0
  3  4  1  0  0  0  0
  4  5  1  0  0  0  0
  4  6  1  0  0  0  0
  6  7  2  0  0  0  0
  7  8  1  0  0  0  0
  8  9  2  0  0  0  0
  9 10  1  0  0  0  0
 10 11  2  0  0  0  0
 11  6  1  0  0  0  0
  4 12  1  0  0  0  0
 12 13  2  0  0  0  0
 13 14  1  0  0  0  0
 14 15  2  0  0  0  0
 15 16  1  0  0  0  0
 16 17  2  0  0  0  0
 17 12  1  0  0  0  0
M  END
>  <Work Package>
D

>  <Target ID>
P4_D_MXF005

>  <Smiles>
CCCC(O)(c1ccccc1)c2cccnc2

>  <Status >
Completed - in test

>  <Target Proposed by>
Mycetos Github

>  <Synthesis by>
HDuong

>  <logD>
2.511

$$$$
Chemistry 51
  StarDrop          2D                              

 19 20  0  0  0  0  0  0  0  0999 V2000
    8.8391   -0.9098    0.0000 C   0  0  0  0  0  0  0  0  0  0  0  0
    7.7988   -1.5080    0.0000 C   0  0  0  0  0  0  0  0  0  0  0  0
    6.4999   -0.7561    0.0000 O   0  0  0  0  0  0  0  0  0  0  0  0
    5.1988   -1.5042    0.0000 C   0  0  0  0  0  0  0  0  0  0  0  0
    3.8999   -0.7523    0.0000 C   0  0  0  0  0  0  0  0  0  0  0  0
    2.5988   -1.5004    0.0000 C   0  0  0  0  0  0  0  0  0  0  0  0
    2.5999   -0.3004    0.0000 O   0  0  0  0  0  0  0  0  0  0  0  0
    1.2990   -0.7500    0.0000 C   0  0  0  0  0  0  0  0  0  0  0  0
    1.2990    0.7500    0.0000 C   0  0  0  0  0  0  0  0  0  0  0  0
    0.0000    1.5000    0.0000 C   0  0  0  0  0  0  0  0  0  0  0  0
   -1.2990    0.7500    0.0000 C   0  0  0  0  0  0  0  0  0  0  0  0
   -1.2990   -0.7500    0.0000 C   0  0  0  0  0  0  0  0  0  0  0  0
    0.0000   -1.5000    0.0000 C   0  0  0  0  0  0  0  0  0  0  0  0
    2.5996   -3.0013    0.0000 C   0  0  0  0  0  0  0  0  0  0  0  0
    1.3010   -3.7520    0.0000 C   0  0  0  0  0  0  0  0  0  0  0  0
    1.3018   -5.2520    0.0000 C   0  0  0  0  0  0  0  0  0  0  0  0
    2.6012   -6.0013    0.0000 C   0  0  0  0  0  0  0  0  0  0  0  0
    3.8998   -5.2506    0.0000 N   0  0  0  0  0  0  0  0  0  0  0  0
    3.8990   -3.7506    0.0000 C   0  0  0  0  0  0  0  0  0  0  0  0
  1  2  1  0  0  0  0
  2  3  1  0  0  0  0
  3  4  1  0  0  0  0
  4  5  1  0  0  0  0
  5  6  1  0  0  0  0
  6  7  1  0  0  0  0
  6  8  1  0  0  0  0
  8  9  2  0  0  0  0
  9 10  1  0  0  0  0
 10 11  2  0  0  0  0
 11 12  1  0  0  0  0
 12 13  2  0  0  0  0
 13  8  1  0  0  0  0
  6 14  1  0  0  0  0
 14 15  2  0  0  0  0
 15 16  1  0  0  0  0
 16 17  2  0  0  0  0
 17 18  1  0  0  0  0
 18 19  2  0  0  0  0
 19 14  1  0  0  0  0
M  END
>  <Work Package>
D

>  <Target ID>
P4_D_MXF006

>  <Smiles>
CCOCCC(O)(c1ccccc1)c2cccnc2

>  <Status >
Ongoing

>  <Target Proposed by>
Mycetos Github

>  <Synthesis by>
HDuong

>  <logD>
2.19

$$$$
Chemistry 52
  StarDrop          2D                              

 16 17  0  0  0  0  0  0  0  0999 V2000
    1.5593   -3.6015    0.0000 C   0  0  0  0  0  0  0  0  0  0  0  0
    2.5983   -3.0012    0.0000 C   0  0  0  0  0  0  0  0  0  0  0  0
    2.5988   -1.5004    0.0000 C   0  0  0  0  0  0  0  0  0  0  0  0
    1.5595   -2.1002    0.0000 O   0  0  0  0  0  0  0  0  0  0  0  0
    1.2990   -0.7500    0.0000 C   0  0  0  0  0  0  0  0  0  0  0  0
    1.2990    0.7500    0.0000 C   0  0  0  0  0  0  0  0  0  0  0  0
    0.0000    1.5000    0.0000 C   0  0  0  0  0  0  0  0  0  0  0  0
   -1.2990    0.7500    0.0000 C   0  0  0  0  0  0  0  0  0  0  0  0
   -1.2990   -0.7500    0.0000 C   0  0  0  0  0  0  0  0  0  0  0  0
    0.0000   -1.5000    0.0000 C   0  0  0  0  0  0  0  0  0  0  0  0
    3.8990   -0.7508    0.0000 C   0  0  0  0  0  0  0  0  0  0  0  0
    5.1976   -1.5016    0.0000 C   0  0  0  0  0  0  0  0  0  0  0  0
    6.4971   -0.7525    0.0000 C   0  0  0  0  0  0  0  0  0  0  0  0
    6.4980    0.7475    0.0000 C   0  0  0  0  0  0  0  0  0  0  0  0
    5.1995    1.4984    0.0000 N   0  0  0  0  0  0  0  0  0  0  0  0
    3.9000    0.7492    0.0000 C   0  0  0  0  0  0  0  0  0  0  0  0
  1  2  1  0  0  0  0
  2  3  1  0  0  0  0
  3  4  1  0  0  0  0
  3  5  1  0  0  0  0
  5  6  2  0  0  0  0
  6  7  1  0  0  0  0
  7  8  2  0  0  0  0
  8  9  1  0  0  0  0
  9 10  2  0  0  0  0
 10  5  1  0  0  0  0
  3 11  1  0  0  0  0
 11 12  2  0  0  0  0
 12 13  1  0  0  0  0
 13 14  2  0  0  0  0
 14 15  1  0  0  0  0
 15 16  2  0  0  0  0
 16 11  1  0  0  0  0
M  END
>  <Work Package>
D

>  <Target ID>
P4_D_MXF007

>  <Smiles>
CCC(O)(c1ccccc1)c2cccnc2

>  <Status >
Ongoing

>  <Target Proposed by>
Mycetos Github

>  <Synthesis by>
HDuong

>  <logD>
2.163

$$$$
Chemistry 53
  StarDrop          2D                              

 17 19  0  0  0  0  0  0  0  0999 V2000
    1.2707   -1.9497    0.0000 O   0  0  0  0  0  0  0  0  0  0  0  0
    1.2990   -0.7500    0.0000 C   0  0  0  0  0  0  0  0  0  0  0  0
    1.2990    0.7500    0.0000 C   0  0  0  0  0  0  0  0  0  0  0  0
    0.0000    1.5000    0.0000 C   0  0  0  0  0  0  0  0  0  0  0  0
   -1.2990    0.7500    0.0000 C   0  0  0  0  0  0  0  0  0  0  0  0
   -1.2990   -0.7500    0.0000 C   0  0  0  0  0  0  0  0  0  0  0  0
   -2.5981   -1.5000    0.0000 C   0  0  0  0  0  0  0  0  0  0  0  0
   -2.5981   -3.0000    0.0000 C   0  0  0  0  0  0  0  0  0  0  0  0
   -1.2990   -3.7500    0.0000 C   0  0  0  0  0  0  0  0  0  0  0  0
    0.0000   -3.0000    0.0000 C   0  0  0  0  0  0  0  0  0  0  0  0
    0.0000   -1.5000    0.0000 C   0  0  0  0  0  0  0  0  0  0  0  0
    2.5636    0.0202    0.0000 C   0  0  0  0  0  0  0  0  0  0  0  0
    3.8799   -0.6991    0.0000 C   0  0  0  0  0  0  0  0  0  0  0  0
    5.1609    0.0813    0.0000 N   0  0  0  0  0  0  0  0  0  0  0  0
    5.1257    1.5808    0.0000 C   0  0  0  0  0  0  0  0  0  0  0  0
    3.8094    2.3001    0.0000 N   0  0  0  0  0  0  0  0  0  0  0  0
    2.5283    1.5198    0.0000 C   0  0  0  0  0  0  0  0  0  0  0  0
  1  2  1  0  0  0  0
  2  3  1  0  0  0  0
  3  4  1  0  0  0  0
  4  5  1  0  0  0  0
  5  6  1  0  0  0  0
  6  7  2  0  0  0  0
  7  8  1  0  0  0  0
  8  9  2  0  0  0  0
  9 10  1  0  0  0  0
 10 11  2  0  0  0  0
 11  2  1  0  0  0  0
 11  6  1  0  0  0  0
  2 12  1  0  0  0  0
 12 13  2  0  0  0  0
 13 14  1  0  0  0  0
 14 15  2  0  0  0  0
 15 16  1  0  0  0  0
 16 17  2  0  0  0  0
 17 12  1  0  0  0  0
M  END
>  <Work Package>
D

>  <Target ID>
P4_D_MXF008

>  <Smiles>
OC1(CCCc2ccccc12)c3cncnc3

>  <Status >
Not Started

>  <Target Proposed by>
Mycetos Github

>  <Synthesis by>
>  <logD>
2.434

$$$$
Chemistry 54
  StarDrop          2D                              

 21 24  0  0  0  0  0  0  0  0999 V2000
    2.3238   -0.1256    0.0000 O   0  0  0  0  0  0  0  0  0  0  0  0
    1.2990   -0.7500    0.0000 C   0  0  0  0  0  0  0  0  0  0  0  0
    1.7726   -2.1528    0.0000 C   0  0  0  0  0  0  0  0  0  0  0  0
    3.2433   -2.4479    0.0000 C   0  0  0  0  0  0  0  0  0  0  0  0
    3.7231   -3.8691    0.0000 C   0  0  0  0  0  0  0  0  0  0  0  0
    2.7322   -4.9952    0.0000 C   0  0  0  0  0  0  0  0  0  0  0  0
    1.2615   -4.7001    0.0000 N   0  0  0  0  0  0  0  0  0  0  0  0
    0.7817   -3.2789    0.0000 C   0  0  0  0  0  0  0  0  0  0  0  0
    1.2990    0.7500    0.0000 C   0  0  0  0  0  0  0  0  0  0  0  0
    2.5981    1.5000    0.0000 C   0  0  0  0  0  0  0  0  0  0  0  0
    2.5981    3.0000    0.0000 C   0  0  0  0  0  0  0  0  0  0  0  0
    1.2990    3.7500    0.0000 C   0  0  0  0  0  0  0  0  0  0  0  0
    0.0000    3.0000    0.0000 C   0  0  0  0  0  0  0  0  0  0  0  0
    0.0000    1.5000    0.0000 C   0  0  0  0  0  0  0  0  0  0  0  0
   -1.2990    0.7500    0.0000 C   0  0  0  0  0  0  0  0  0  0  0  0
   -1.2990   -0.7500    0.0000 C   0  0  0  0  0  0  0  0  0  0  0  0
   -2.5981   -1.5000    0.0000 C   0  0  0  0  0  0  0  0  0  0  0  0
   -2.5981   -3.0000    0.0000 C   0  0  0  0  0  0  0  0  0  0  0  0
   -1.2990   -3.7500    0.0000 C   0  0  0  0  0  0  0  0  0  0  0  0
    0.0000   -3.0000    0.0000 C   0  0  0  0  0  0  0  0  0  0  0  0
    0.0000   -1.5000    0.0000 C   0  0  0  0  0  0  0  0  0  0  0  0
  1  2  1  0  0  0  0
  2  3  1  0  0  0  0
  3  4  2  0  0  0  0
  4  5  1  0  0  0  0
  5  6  2  0  0  0  0
  6  7  1  0  0  0  0
  7  8  2  0  0  0  0
  8  3  1  0  0  0  0
  2  9  1  0  0  0  0
  9 10  2  0  0  0  0
 10 11  1  0  0  0  0
 11 12  2  0  0  0  0
 12 13  1  0  0  0  0
 13 14  2  0  0  0  0
 14  9  1  0  0  0  0
 14 15  1  0  0  0  0
 15 16  1  0  0  0  0
 16 17  2  0  0  0  0
 17 18  1  0  0  0  0
 18 19  2  0  0  0  0
 19 20  1  0  0  0  0
 20 21  2  0  0  0  0
 21  2  1  0  0  0  0
 21 16  1  0  0  0  0
M  END
>  <Work Package>
d

>  <Target ID>
P4_D_MXF009

>  <Smiles>
OC1(c2cccnc2)c3ccccc3Cc4ccccc14

>  <Status >
Stopped - difficult synthesis

>  <Target Proposed by>
Mycetos Github

>  <Synthesis by>
HDuong

>  <logD>
2.261

$$$$
Chemistry 55
  StarDrop          2D                              

 22 24  0  0  0  0  0  0  0  0999 V2000
    2.3383   -1.3500    0.0000 C   0  0  0  0  0  0  0  0  0  0  0  0
    1.2990   -0.7500    0.0000 C   0  0  0  0  0  0  0  0  0  0  0  0
    1.2990    0.7500    0.0000 C   0  0  0  0  0  0  0  0  0  0  0  0
    0.0000    1.5000    0.0000 C   0  0  0  0  0  0  0  0  0  0  0  0
   -1.2990    0.7500    0.0000 C   0  0  0  0  0  0  0  0  0  0  0  0
   -1.2990   -0.7500    0.0000 C   0  0  0  0  0  0  0  0  0  0  0  0
    0.0000   -1.5000    0.0000 C   0  0  0  0  0  0  0  0  0  0  0  0
    0.0000   -2.7000    0.0000 C   0  0  0  0  0  0  0  0  0  0  0  0
   -2.2638    1.8997    0.0000 C   0  0  0  0  0  0  0  0  0  0  0  0
   -3.4455    1.6909    0.0000 O   0  0  0  0  0  0  0  0  0  0  0  0
   -1.7513    3.3103    0.0000 C   0  0  0  0  0  0  0  0  0  0  0  0
   -2.7163    4.4588    0.0000 C   0  0  0  0  0  0  0  0  0  0  0  0
   -2.2041    5.8687    0.0000 C   0  0  0  0  0  0  0  0  0  0  0  0
   -0.7271    6.1301    0.0000 C   0  0  0  0  0  0  0  0  0  0  0  0
    0.2378    4.9816    0.0000 C   0  0  0  0  0  0  0  0  0  0  0  0
   -0.2743    3.5717    0.0000 C   0  0  0  0  0  0  0  0  0  0  0  0
   -2.7768    0.4894    0.0000 C   0  0  0  0  0  0  0  0  0  0  0  0
   -4.2540    0.2286    0.0000 C   0  0  0  0  0  0  0  0  0  0  0  0
   -4.7668   -1.1810    0.0000 C   0  0  0  0  0  0  0  0  0  0  0  0
   -3.8024   -2.3299    0.0000 C   0  0  0  0  0  0  0  0  0  0  0  0
   -2.3252   -2.0692    0.0000 N   0  0  0  0  0  0  0  0  0  0  0  0
   -1.8124   -0.6595    0.0000 C   0  0  0  0  0  0  0  0  0  0  0  0
  1  2  1  0  0  0  0
  2  3  2  0  0  0  0
  3  4  1  0  0  0  0
  4  5  2  0  0  0  0
  5  6  1  0  0  0  0
  6  7  2  0  0  0  0
  7  2  1  0  0  0  0
  7  8  1  0  0  0  0
  5  9  1  0  0  0  0
  9 10  1  0  0  0  0
  9 11  1  0  0  0  0
 11 12  2  0  0  0  0
 12 13  1  0  0  0  0
 13 14  2  0  0  0  0
 14 15  1  0  0  0  0
 15 16  2  0  0  0  0
 16 11  1  0  0  0  0
  9 17  1  0  0  0  0
 17 18  2  0  0  0  0
 18 19  1  0  0  0  0
 19 20  2  0  0  0  0
 20 21  1  0  0  0  0
 21 22  2  0  0  0  0
 22 17  1  0  0  0  0
M  END
>  <Work Package>
D

>  <Target ID>
P4_D_MXF010

>  <Smiles>
Cc1ccc(cc1C)C(O)(c2ccccc2)c3cccnc3

>  <Status >
Not Started

>  <Target Proposed by>
Mycetos Github

>  <Synthesis by>
>  <logD>
2.829

$$$$
Chemistry 63
  StarDrop          2D                              

 26 28  0  0  0  0  0  0  0  0999 V2000
    3.8916   -4.9570    0.0000 C   0  0  0  0  0  0  0  0  0  0  0  0
    3.8933   -3.7570    0.0000 C   0  0  0  0  0  0  0  0  0  0  0  0
    2.5951   -3.0039    0.0000 O   0  0  0  0  0  0  0  0  0  0  0  0
    2.5973   -1.5031    0.0000 C   0  0  0  0  0  0  0  0  0  0  0  0
    3.6375   -0.9049    0.0000 O   0  0  0  0  0  0  0  0  0  0  0  0
    1.2990   -0.7500    0.0000 N   0  0  0  0  0  0  0  0  0  0  0  0
    1.2990    0.7500    0.0000 C   0  0  0  0  0  0  0  0  0  0  0  0
    0.0000    1.5000    0.0000 C   0  0  0  0  0  0  0  0  0  0  0  0
   -1.2990    0.7500    0.0000 N   0  0  0  0  0  0  0  0  0  0  0  0
   -1.2990   -0.7500    0.0000 C   0  0  0  0  0  0  0  0  0  0  0  0
    0.0000   -1.5000    0.0000 C   0  0  0  0  0  0  0  0  0  0  0  0
   -2.5998    1.4986    0.0000 C   0  0  0  0  0  0  0  0  0  0  0  0
   -3.8983    0.7460    0.0000 C   0  0  0  0  0  0  0  0  0  0  0  0
   -3.8989   -0.7540    0.0000 C   0  0  0  0  0  0  0  0  0  0  0  0
   -5.1982   -1.5035    0.0000 C   0  0  0  0  0  0  0  0  0  0  0  0
   -6.4970   -0.7530    0.0000 C   0  0  0  0  0  0  0  0  0  0  0  0
   -6.4964    0.7470    0.0000 N   0  0  0  0  0  0  0  0  0  0  0  0
   -5.1971    1.4965    0.0000 C   0  0  0  0  0  0  0  0  0  0  0  0
   -2.6013    2.9994    0.0000 C   0  0  0  0  0  0  0  0  0  0  0  0
   -1.3046    3.7535    0.0000 C   0  0  0  0  0  0  0  0  0  0  0  0
   -0.2635    3.1567    0.0000 F   0  0  0  0  0  0  0  0  0  0  0  0
   -1.3092    5.2535    0.0000 C   0  0  0  0  0  0  0  0  0  0  0  0
   -2.6105    5.9995    0.0000 C   0  0  0  0  0  0  0  0  0  0  0  0
   -3.9073    5.2455    0.0000 C   0  0  0  0  0  0  0  0  0  0  0  0
   -3.9027    3.7455    0.0000 C   0  0  0  0  0  0  0  0  0  0  0  0
   -4.9401    3.1424    0.0000 Cl  0  0  0  0  0  0  0  0  0  0  0  0
  1  2  1  0  0  0  0
  2  3  1  0  0  0  0
  3  4  1  0  0  0  0
  4  5  2  0  0  0  0
  4  6  1  0  0  0  0
  6  7  1  0  0  0  0
  7  8  1  0  0  0  0
  8  9  1  0  0  0  0
  9 10  1  0  0  0  0
 10 11  1  0  0  0  0
 11  6  1  0  0  0  0
  9 12  1  0  0  0  0
 12 13  1  0  0  0  0
 13 14  2  0  0  0  0
 14 15  1  0  0  0  0
 15 16  2  0  0  0  0
 16 17  1  0  0  0  0
 17 18  2  0  0  0  0
 18 13  1  0  0  0  0
 12 19  1  0  0  0  0
 19 20  2  0  0  0  0
 20 21  1  0  0  0  0
 20 22  1  0  0  0  0
 22 23  2  0  0  0  0
 23 24  1  0  0  0  0
 24 25  2  0  0  0  0
 25 19  1  0  0  0  0
 25 26  1  0  0  0  0
M  END
>  <Work Package>
E

>  <Target ID>
P4_E_001

>  <Smiles>
CCOC(=O)N1CCN(CC1)C(c2cccnc2)c3c(F)cccc3Cl

>  <Status >
Ongoing

>  <Target Proposed by>
University of Washington Tacoma

>  <Synthesis by>
University of Washington (Laura Murphy)

>  <logD>
2.428

$$$$
Chemistry 64
  StarDrop          2D                              

 26 28  0  0  0  0  0  0  0  0999 V2000
    3.8916   -4.9570    0.0000 C   0  0  0  0  0  0  0  0  0  0  0  0
    3.8933   -3.7570    0.0000 C   0  0  0  0  0  0  0  0  0  0  0  0
    2.5951   -3.0039    0.0000 O   0  0  0  0  0  0  0  0  0  0  0  0
    2.5973   -1.5031    0.0000 C   0  0  0  0  0  0  0  0  0  0  0  0
    3.6375   -0.9049    0.0000 O   0  0  0  0  0  0  0  0  0  0  0  0
    1.2990   -0.7500    0.0000 N   0  0  0  0  0  0  0  0  0  0  0  0
    1.2990    0.7500    0.0000 C   0  0  0  0  0  0  0  0  0  0  0  0
    0.0000    1.5000    0.0000 C   0  0  0  0  0  0  0  0  0  0  0  0
   -1.2990    0.7500    0.0000 N   0  0  0  0  0  0  0  0  0  0  0  0
   -1.2990   -0.7500    0.0000 C   0  0  0  0  0  0  0  0  0  0  0  0
    0.0000   -1.5000    0.0000 C   0  0  0  0  0  0  0  0  0  0  0  0
   -2.5998    1.4986    0.0000 C   0  0  0  0  0  0  0  0  0  0  0  0
   -3.8983    0.7460    0.0000 C   0  0  0  0  0  0  0  0  0  0  0  0
   -3.8989   -0.7540    0.0000 C   0  0  0  0  0  0  0  0  0  0  0  0
   -5.1982   -1.5035    0.0000 C   0  0  0  0  0  0  0  0  0  0  0  0
   -6.4970   -0.7530    0.0000 C   0  0  0  0  0  0  0  0  0  0  0  0
   -6.4964    0.7470    0.0000 N   0  0  0  0  0  0  0  0  0  0  0  0
   -5.1971    1.4965    0.0000 C   0  0  0  0  0  0  0  0  0  0  0  0
   -2.6013    2.9994    0.0000 C   0  0  0  0  0  0  0  0  0  0  0  0
   -3.9027    3.7455    0.0000 C   0  0  0  0  0  0  0  0  0  0  0  0
   -3.9073    5.2455    0.0000 C   0  0  0  0  0  0  0  0  0  0  0  0
   -2.6105    5.9995    0.0000 C   0  0  0  0  0  0  0  0  0  0  0  0
   -2.6142    7.1995    0.0000 F   0  0  0  0  0  0  0  0  0  0  0  0
   -1.3092    5.2535    0.0000 C   0  0  0  0  0  0  0  0  0  0  0  0
   -1.3046    3.7535    0.0000 C   0  0  0  0  0  0  0  0  0  0  0  0
   -0.2635    3.1567    0.0000 Cl  0  0  0  0  0  0  0  0  0  0  0  0
  1  2  1  0  0  0  0
  2  3  1  0  0  0  0
  3  4  1  0  0  0  0
  4  5  2  0  0  0  0
  4  6  1  0  0  0  0
  6  7  1  0  0  0  0
  7  8  1  0  0  0  0
  8  9  1  0  0  0  0
  9 10  1  0  0  0  0
 10 11  1  0  0  0  0
 11  6  1  0  0  0  0
  9 12  1  0  0  0  0
 12 13  1  0  0  0  0
 13 14  2  0  0  0  0
 14 15  1  0  0  0  0
 15 16  2  0  0  0  0
 16 17  1  0  0  0  0
 17 18  2  0  0  0  0
 18 13  1  0  0  0  0
 12 19  1  0  0  0  0
 19 20  2  0  0  0  0
 20 21  1  0  0  0  0
 21 22  2  0  0  0  0
 22 23  1  0  0  0  0
 22 24  1  0  0  0  0
 24 25  2  0  0  0  0
 25 19  1  0  0  0  0
 25 26  1  0  0  0  0
M  END
>  <Work Package>
E

>  <Target ID>
P4_E_002

>  <Smiles>
CCOC(=O)N1CCN(CC1)C(c2cccnc2)c3ccc(F)cc3Cl

>  <Status >
Ongoing

>  <Target Proposed by>
University of Washington Tacoma

>  <Synthesis by>
University of Washington (Laura Murphy)

>  <logD>
2.494

$$$$
Chemistry 65
  StarDrop          2D                              

 26 28  0  0  0  0  0  0  0  0999 V2000
    3.8916   -4.9570    0.0000 C   0  0  0  0  0  0  0  0  0  0  0  0
    3.8933   -3.7570    0.0000 C   0  0  0  0  0  0  0  0  0  0  0  0
    2.5951   -3.0039    0.0000 O   0  0  0  0  0  0  0  0  0  0  0  0
    2.5973   -1.5031    0.0000 C   0  0  0  0  0  0  0  0  0  0  0  0
    3.6375   -0.9049    0.0000 O   0  0  0  0  0  0  0  0  0  0  0  0
    1.2990   -0.7500    0.0000 N   0  0  0  0  0  0  0  0  0  0  0  0
    1.2990    0.7500    0.0000 C   0  0  0  0  0  0  0  0  0  0  0  0
    0.0000    1.5000    0.0000 C   0  0  0  0  0  0  0  0  0  0  0  0
   -1.2990    0.7500    0.0000 N   0  0  0  0  0  0  0  0  0  0  0  0
   -1.2990   -0.7500    0.0000 C   0  0  0  0  0  0  0  0  0  0  0  0
    0.0000   -1.5000    0.0000 C   0  0  0  0  0  0  0  0  0  0  0  0
   -2.5998    1.4986    0.0000 C   0  0  0  0  0  0  0  0  0  0  0  0
   -3.8983    0.7460    0.0000 C   0  0  0  0  0  0  0  0  0  0  0  0
   -3.8989   -0.7540    0.0000 C   0  0  0  0  0  0  0  0  0  0  0  0
   -5.1982   -1.5035    0.0000 C   0  0  0  0  0  0  0  0  0  0  0  0
   -6.4970   -0.7530    0.0000 C   0  0  0  0  0  0  0  0  0  0  0  0
   -6.4964    0.7470    0.0000 N   0  0  0  0  0  0  0  0  0  0  0  0
   -5.1971    1.4965    0.0000 C   0  0  0  0  0  0  0  0  0  0  0  0
   -2.6013    2.9994    0.0000 C   0  0  0  0  0  0  0  0  0  0  0  0
   -3.9027    3.7455    0.0000 C   0  0  0  0  0  0  0  0  0  0  0  0
   -3.9073    5.2455    0.0000 C   0  0  0  0  0  0  0  0  0  0  0  0
   -4.9483    5.8423    0.0000 Cl  0  0  0  0  0  0  0  0  0  0  0  0
   -2.6105    5.9995    0.0000 C   0  0  0  0  0  0  0  0  0  0  0  0
   -1.3092    5.2535    0.0000 C   0  0  0  0  0  0  0  0  0  0  0  0
   -1.3046    3.7535    0.0000 C   0  0  0  0  0  0  0  0  0  0  0  0
   -0.2635    3.1567    0.0000 F   0  0  0  0  0  0  0  0  0  0  0  0
  1  2  1  0  0  0  0
  2  3  1  0  0  0  0
  3  4  1  0  0  0  0
  4  5  2  0  0  0  0
  4  6  1  0  0  0  0
  6  7  1  0  0  0  0
  7  8  1  0  0  0  0
  8  9  1  0  0  0  0
  9 10  1  0  0  0  0
 10 11  1  0  0  0  0
 11  6  1  0  0  0  0
  9 12  1  0  0  0  0
 12 13  1  0  0  0  0
 13 14  2  0  0  0  0
 14 15  1  0  0  0  0
 15 16  2  0  0  0  0
 16 17  1  0  0  0  0
 17 18  2  0  0  0  0
 18 13  1  0  0  0  0
 12 19  1  0  0  0  0
 19 20  2  0  0  0  0
 20 21  1  0  0  0  0
 21 22  1  0  0  0  0
 21 23  2  0  0  0  0
 23 24  1  0  0  0  0
 24 25  2  0  0  0  0
 25 19  1  0  0  0  0
 25 26  1  0  0  0  0
M  END
>  <Work Package>
E

>  <Target ID>
P4_E_003

>  <Smiles>
CCOC(=O)N1CCN(CC1)C(c2cccnc2)c3cc(Cl)ccc3F

>  <Status >
Ongoing

>  <Target Proposed by>
University of Washington Tacoma

>  <Synthesis by>
University of Washington (Laura Murphy)

>  <logD>
2.496

$$$$
Chemistry 66
  StarDrop          2D                              

 26 28  0  0  0  0  0  0  0  0999 V2000
    3.8916   -4.9570    0.0000 C   0  0  0  0  0  0  0  0  0  0  0  0
    3.8933   -3.7570    0.0000 C   0  0  0  0  0  0  0  0  0  0  0  0
    2.5951   -3.0039    0.0000 O   0  0  0  0  0  0  0  0  0  0  0  0
    2.5973   -1.5031    0.0000 C   0  0  0  0  0  0  0  0  0  0  0  0
    3.6375   -0.9049    0.0000 O   0  0  0  0  0  0  0  0  0  0  0  0
    1.2990   -0.7500    0.0000 N   0  0  0  0  0  0  0  0  0  0  0  0
    1.2990    0.7500    0.0000 C   0  0  0  0  0  0  0  0  0  0  0  0
    0.0000    1.5000    0.0000 C   0  0  0  0  0  0  0  0  0  0  0  0
   -1.2990    0.7500    0.0000 N   0  0  0  0  0  0  0  0  0  0  0  0
   -1.2990   -0.7500    0.0000 C   0  0  0  0  0  0  0  0  0  0  0  0
    0.0000   -1.5000    0.0000 C   0  0  0  0  0  0  0  0  0  0  0  0
   -2.5998    1.4986    0.0000 C   0  0  0  0  0  0  0  0  0  0  0  0
   -3.8983    0.7460    0.0000 C   0  0  0  0  0  0  0  0  0  0  0  0
   -3.8989   -0.7540    0.0000 C   0  0  0  0  0  0  0  0  0  0  0  0
   -5.1982   -1.5035    0.0000 C   0  0  0  0  0  0  0  0  0  0  0  0
   -6.4970   -0.7530    0.0000 C   0  0  0  0  0  0  0  0  0  0  0  0
   -6.4964    0.7470    0.0000 N   0  0  0  0  0  0  0  0  0  0  0  0
   -5.1971    1.4965    0.0000 C   0  0  0  0  0  0  0  0  0  0  0  0
   -2.6013    2.9994    0.0000 C   0  0  0  0  0  0  0  0  0  0  0  0
   -1.3046    3.7535    0.0000 C   0  0  0  0  0  0  0  0  0  0  0  0
   -1.3092    5.2535    0.0000 C   0  0  0  0  0  0  0  0  0  0  0  0
   -2.6105    5.9995    0.0000 C   0  0  0  0  0  0  0  0  0  0  0  0
   -2.6142    7.1995    0.0000 F   0  0  0  0  0  0  0  0  0  0  0  0
   -3.9073    5.2455    0.0000 C   0  0  0  0  0  0  0  0  0  0  0  0
   -4.9483    5.8423    0.0000 Cl  0  0  0  0  0  0  0  0  0  0  0  0
   -3.9027    3.7455    0.0000 C   0  0  0  0  0  0  0  0  0  0  0  0
  1  2  1  0  0  0  0
  2  3  1  0  0  0  0
  3  4  1  0  0  0  0
  4  5  2  0  0  0  0
  4  6  1  0  0  0  0
  6  7  1  0  0  0  0
  7  8  1  0  0  0  0
  8  9  1  0  0  0  0
  9 10  1  0  0  0  0
 10 11  1  0  0  0  0
 11  6  1  0  0  0  0
  9 12  1  0  0  0  0
 12 13  1  0  0  0  0
 13 14  2  0  0  0  0
 14 15  1  0  0  0  0
 15 16  2  0  0  0  0
 16 17  1  0  0  0  0
 17 18  2  0  0  0  0
 18 13  1  0  0  0  0
 12 19  1  0  0  0  0
 19 20  2  0  0  0  0
 20 21  1  0  0  0  0
 21 22  2  0  0  0  0
 22 23  1  0  0  0  0
 22 24  1  0  0  0  0
 24 25  1  0  0  0  0
 24 26  2  0  0  0  0
 26 19  1  0  0  0  0
M  END
>  <Work Package>
E

>  <Target ID>
P4_E_004

>  <Smiles>
CCOC(=O)N1CCN(CC1)C(c2cccnc2)c3ccc(F)c(Cl)c3

>  <Status >
Ongoing

>  <Target Proposed by>
University of Washington Tacoma

>  <Synthesis by>
University of Washington (Laura Murphy)

>  <logD>
2.494

$$$$
Chemistry 67
  StarDrop          2D                              

 26 28  0  0  0  0  0  0  0  0999 V2000
    3.8916   -4.9570    0.0000 C   0  0  0  0  0  0  0  0  0  0  0  0
    3.8933   -3.7570    0.0000 C   0  0  0  0  0  0  0  0  0  0  0  0
    2.5951   -3.0039    0.0000 O   0  0  0  0  0  0  0  0  0  0  0  0
    2.5973   -1.5031    0.0000 C   0  0  0  0  0  0  0  0  0  0  0  0
    3.6375   -0.9049    0.0000 O   0  0  0  0  0  0  0  0  0  0  0  0
    1.2990   -0.7500    0.0000 N   0  0  0  0  0  0  0  0  0  0  0  0
    1.2990    0.7500    0.0000 C   0  0  0  0  0  0  0  0  0  0  0  0
    0.0000    1.5000    0.0000 C   0  0  0  0  0  0  0  0  0  0  0  0
   -1.2990    0.7500    0.0000 N   0  0  0  0  0  0  0  0  0  0  0  0
   -1.2990   -0.7500    0.0000 C   0  0  0  0  0  0  0  0  0  0  0  0
    0.0000   -1.5000    0.0000 C   0  0  0  0  0  0  0  0  0  0  0  0
   -2.5998    1.4986    0.0000 C   0  0  0  0  0  0  0  0  0  0  0  0
   -3.8983    0.7460    0.0000 C   0  0  0  0  0  0  0  0  0  0  0  0
   -3.8989   -0.7540    0.0000 C   0  0  0  0  0  0  0  0  0  0  0  0
   -5.1982   -1.5035    0.0000 C   0  0  0  0  0  0  0  0  0  0  0  0
   -6.4970   -0.7530    0.0000 C   0  0  0  0  0  0  0  0  0  0  0  0
   -6.4964    0.7470    0.0000 N   0  0  0  0  0  0  0  0  0  0  0  0
   -5.1971    1.4965    0.0000 C   0  0  0  0  0  0  0  0  0  0  0  0
   -2.6013    2.9994    0.0000 C   0  0  0  0  0  0  0  0  0  0  0  0
   -1.3046    3.7535    0.0000 C   0  0  0  0  0  0  0  0  0  0  0  0
   -1.3092    5.2535    0.0000 C   0  0  0  0  0  0  0  0  0  0  0  0
   -0.2718    5.8567    0.0000 F   0  0  0  0  0  0  0  0  0  0  0  0
   -2.6105    5.9995    0.0000 C   0  0  0  0  0  0  0  0  0  0  0  0
   -3.9073    5.2455    0.0000 C   0  0  0  0  0  0  0  0  0  0  0  0
   -4.9483    5.8423    0.0000 Cl  0  0  0  0  0  0  0  0  0  0  0  0
   -3.9027    3.7455    0.0000 C   0  0  0  0  0  0  0  0  0  0  0  0
  1  2  1  0  0  0  0
  2  3  1  0  0  0  0
  3  4  1  0  0  0  0
  4  5  2  0  0  0  0
  4  6  1  0  0  0  0
  6  7  1  0  0  0  0
  7  8  1  0  0  0  0
  8  9  1  0  0  0  0
  9 10  1  0  0  0  0
 10 11  1  0  0  0  0
 11  6  1  0  0  0  0
  9 12  1  0  0  0  0
 12 13  1  0  0  0  0
 13 14  2  0  0  0  0
 14 15  1  0  0  0  0
 15 16  2  0  0  0  0
 16 17  1  0  0  0  0
 17 18  2  0  0  0  0
 18 13  1  0  0  0  0
 12 19  1  0  0  0  0
 19 20  2  0  0  0  0
 20 21  1  0  0  0  0
 21 22  1  0  0  0  0
 21 23  2  0  0  0  0
 23 24  1  0  0  0  0
 24 25  1  0  0  0  0
 24 26  2  0  0  0  0
 26 19  1  0  0  0  0
M  END
>  <Work Package>
E

>  <Target ID>
P4_E_005

>  <Smiles>
CCOC(=O)N1CCN(CC1)C(c2cccnc2)c3cc(F)cc(Cl)c3

>  <Status >
Ongoing

>  <Target Proposed by>
University of Washington Tacoma

>  <Synthesis by>
University of Washington (Laura Murphy)

>  <logD>
2.492

$$$$
Chemistry 68
  StarDrop          2D                              

 26 28  0  0  0  0  0  0  0  0999 V2000
    3.8916   -4.9570    0.0000 C   0  0  0  0  0  0  0  0  0  0  0  0
    3.8933   -3.7570    0.0000 C   0  0  0  0  0  0  0  0  0  0  0  0
    2.5951   -3.0039    0.0000 O   0  0  0  0  0  0  0  0  0  0  0  0
    2.5973   -1.5031    0.0000 C   0  0  0  0  0  0  0  0  0  0  0  0
    3.6375   -0.9049    0.0000 O   0  0  0  0  0  0  0  0  0  0  0  0
    1.2990   -0.7500    0.0000 N   0  0  0  0  0  0  0  0  0  0  0  0
    1.2990    0.7500    0.0000 C   0  0  0  0  0  0  0  0  0  0  0  0
    0.0000    1.5000    0.0000 C   0  0  0  0  0  0  0  0  0  0  0  0
   -1.2990    0.7500    0.0000 N   0  0  0  0  0  0  0  0  0  0  0  0
   -1.2990   -0.7500    0.0000 C   0  0  0  0  0  0  0  0  0  0  0  0
    0.0000   -1.5000    0.0000 C   0  0  0  0  0  0  0  0  0  0  0  0
   -2.5998    1.4986    0.0000 C   0  0  0  0  0  0  0  0  0  0  0  0
   -3.8983    0.7460    0.0000 C   0  0  0  0  0  0  0  0  0  0  0  0
   -3.8989   -0.7540    0.0000 C   0  0  0  0  0  0  0  0  0  0  0  0
   -5.1982   -1.5035    0.0000 C   0  0  0  0  0  0  0  0  0  0  0  0
   -6.4970   -0.7530    0.0000 C   0  0  0  0  0  0  0  0  0  0  0  0
   -6.4964    0.7470    0.0000 C   0  0  0  0  0  0  0  0  0  0  0  0
   -5.1971    1.4965    0.0000 N   0  0  0  0  0  0  0  0  0  0  0  0
   -2.6013    2.9994    0.0000 C   0  0  0  0  0  0  0  0  0  0  0  0
   -3.9027    3.7455    0.0000 C   0  0  0  0  0  0  0  0  0  0  0  0
   -3.9073    5.2455    0.0000 C   0  0  0  0  0  0  0  0  0  0  0  0
   -2.6105    5.9995    0.0000 C   0  0  0  0  0  0  0  0  0  0  0  0
   -2.6142    7.1995    0.0000 Cl  0  0  0  0  0  0  0  0  0  0  0  0
   -1.3092    5.2535    0.0000 C   0  0  0  0  0  0  0  0  0  0  0  0
   -1.3046    3.7535    0.0000 C   0  0  0  0  0  0  0  0  0  0  0  0
   -0.2635    3.1567    0.0000 F   0  0  0  0  0  0  0  0  0  0  0  0
  1  2  1  0  0  0  0
  2  3  1  0  0  0  0
  3  4  1  0  0  0  0
  4  5  2  0  0  0  0
  4  6  1  0  0  0  0
  6  7  1  0  0  0  0
  7  8  1  0  0  0  0
  8  9  1  0  0  0  0
  9 10  1  0  0  0  0
 10 11  1  0  0  0  0
 11  6  1  0  0  0  0
  9 12  1  0  0  0  0
 12 13  1  0  0  0  0
 13 14  2  0  0  0  0
 14 15  1  0  0  0  0
 15 16  2  0  0  0  0
 16 17  1  0  0  0  0
 17 18  2  0  0  0  0
 18 13  1  0  0  0  0
 12 19  1  0  0  0  0
 19 20  2  0  0  0  0
 20 21  1  0  0  0  0
 21 22  2  0  0  0  0
 22 23  1  0  0  0  0
 22 24  1  0  0  0  0
 24 25  2  0  0  0  0
 25 19  1  0  0  0  0
 25 26  1  0  0  0  0
M  END
>  <Work Package>
E

>  <Target ID>
P4_E_006

>  <Smiles>
CCOC(=O)N1CCN(CC1)C(c2ccccn2)c3ccc(Cl)cc3F

>  <Status >
Ongoing

>  <Target Proposed by>
University of Washington Tacoma

>  <Synthesis by>
University of Washington (Laura Murphy)

>  <logD>
2.552

$$$$
Chemistry 69
  StarDrop          2D                              

 26 28  0  0  0  0  0  0  0  0999 V2000
    3.8916   -4.9570    0.0000 C   0  0  0  0  0  0  0  0  0  0  0  0
    3.8933   -3.7570    0.0000 C   0  0  0  0  0  0  0  0  0  0  0  0
    2.5951   -3.0039    0.0000 O   0  0  0  0  0  0  0  0  0  0  0  0
    2.5973   -1.5031    0.0000 C   0  0  0  0  0  0  0  0  0  0  0  0
    3.6375   -0.9049    0.0000 O   0  0  0  0  0  0  0  0  0  0  0  0
    1.2990   -0.7500    0.0000 N   0  0  0  0  0  0  0  0  0  0  0  0
    1.2990    0.7500    0.0000 C   0  0  0  0  0  0  0  0  0  0  0  0
    0.0000    1.5000    0.0000 C   0  0  0  0  0  0  0  0  0  0  0  0
   -1.2990    0.7500    0.0000 N   0  0  0  0  0  0  0  0  0  0  0  0
   -1.2990   -0.7500    0.0000 C   0  0  0  0  0  0  0  0  0  0  0  0
    0.0000   -1.5000    0.0000 C   0  0  0  0  0  0  0  0  0  0  0  0
   -2.5998    1.4986    0.0000 C   0  0  0  0  0  0  0  0  0  0  0  0
   -3.8983    0.7460    0.0000 C   0  0  0  0  0  0  0  0  0  0  0  0
   -3.8989   -0.7540    0.0000 C   0  0  0  0  0  0  0  0  0  0  0  0
   -5.1982   -1.5035    0.0000 C   0  0  0  0  0  0  0  0  0  0  0  0
   -6.4970   -0.7530    0.0000 C   0  0  0  0  0  0  0  0  0  0  0  0
   -6.4964    0.7470    0.0000 C   0  0  0  0  0  0  0  0  0  0  0  0
   -5.1971    1.4965    0.0000 N   0  0  0  0  0  0  0  0  0  0  0  0
   -2.6013    2.9994    0.0000 C   0  0  0  0  0  0  0  0  0  0  0  0
   -1.3046    3.7535    0.0000 C   0  0  0  0  0  0  0  0  0  0  0  0
   -0.2635    3.1567    0.0000 F   0  0  0  0  0  0  0  0  0  0  0  0
   -1.3092    5.2535    0.0000 C   0  0  0  0  0  0  0  0  0  0  0  0
   -2.6105    5.9995    0.0000 C   0  0  0  0  0  0  0  0  0  0  0  0
   -3.9073    5.2455    0.0000 C   0  0  0  0  0  0  0  0  0  0  0  0
   -3.9027    3.7455    0.0000 C   0  0  0  0  0  0  0  0  0  0  0  0
   -4.9401    3.1424    0.0000 Cl  0  0  0  0  0  0  0  0  0  0  0  0
  1  2  1  0  0  0  0
  2  3  1  0  0  0  0
  3  4  1  0  0  0  0
  4  5  2  0  0  0  0
  4  6  1  0  0  0  0
  6  7  1  0  0  0  0
  7  8  1  0  0  0  0
  8  9  1  0  0  0  0
  9 10  1  0  0  0  0
 10 11  1  0  0  0  0
 11  6  1  0  0  0  0
  9 12  1  0  0  0  0
 12 13  1  0  0  0  0
 13 14  2  0  0  0  0
 14 15  1  0  0  0  0
 15 16  2  0  0  0  0
 16 17  1  0  0  0  0
 17 18  2  0  0  0  0
 18 13  1  0  0  0  0
 12 19  1  0  0  0  0
 19 20  2  0  0  0  0
 20 21  1  0  0  0  0
 20 22  1  0  0  0  0
 22 23  2  0  0  0  0
 23 24  1  0  0  0  0
 24 25  2  0  0  0  0
 25 19  1  0  0  0  0
 25 26  1  0  0  0  0
M  END
>  <Work Package>
E

>  <Target ID>
P4_E_007

>  <Smiles>
CCOC(=O)N1CCN(CC1)C(c2ccccn2)c3c(F)cccc3Cl

>  <Status >
Ongoing

>  <Target Proposed by>
University of Washington Tacoma

>  <Synthesis by>
University of Washington (Laura Murphy)

>  <logD>
2.484

$$$$
Chemistry 70
  StarDrop          2D                              

 26 28  0  0  0  0  0  0  0  0999 V2000
    3.8916   -4.9570    0.0000 C   0  0  0  0  0  0  0  0  0  0  0  0
    3.8933   -3.7570    0.0000 C   0  0  0  0  0  0  0  0  0  0  0  0
    2.5951   -3.0039    0.0000 O   0  0  0  0  0  0  0  0  0  0  0  0
    2.5973   -1.5031    0.0000 C   0  0  0  0  0  0  0  0  0  0  0  0
    3.6375   -0.9049    0.0000 O   0  0  0  0  0  0  0  0  0  0  0  0
    1.2990   -0.7500    0.0000 N   0  0  0  0  0  0  0  0  0  0  0  0
    1.2990    0.7500    0.0000 C   0  0  0  0  0  0  0  0  0  0  0  0
    0.0000    1.5000    0.0000 C   0  0  0  0  0  0  0  0  0  0  0  0
   -1.2990    0.7500    0.0000 N   0  0  0  0  0  0  0  0  0  0  0  0
   -1.2990   -0.7500    0.0000 C   0  0  0  0  0  0  0  0  0  0  0  0
    0.0000   -1.5000    0.0000 C   0  0  0  0  0  0  0  0  0  0  0  0
   -2.5998    1.4986    0.0000 C   0  0  0  0  0  0  0  0  0  0  0  0
   -3.8983    0.7460    0.0000 C   0  0  0  0  0  0  0  0  0  0  0  0
   -3.8989   -0.7540    0.0000 C   0  0  0  0  0  0  0  0  0  0  0  0
   -5.1982   -1.5035    0.0000 C   0  0  0  0  0  0  0  0  0  0  0  0
   -6.4970   -0.7530    0.0000 C   0  0  0  0  0  0  0  0  0  0  0  0
   -6.4964    0.7470    0.0000 C   0  0  0  0  0  0  0  0  0  0  0  0
   -5.1971    1.4965    0.0000 N   0  0  0  0  0  0  0  0  0  0  0  0
   -2.6013    2.9994    0.0000 C   0  0  0  0  0  0  0  0  0  0  0  0
   -3.9027    3.7455    0.0000 C   0  0  0  0  0  0  0  0  0  0  0  0
   -3.9073    5.2455    0.0000 C   0  0  0  0  0  0  0  0  0  0  0  0
   -4.9483    5.8423    0.0000 Cl  0  0  0  0  0  0  0  0  0  0  0  0
   -2.6105    5.9995    0.0000 C   0  0  0  0  0  0  0  0  0  0  0  0
   -1.3092    5.2535    0.0000 C   0  0  0  0  0  0  0  0  0  0  0  0
   -1.3046    3.7535    0.0000 C   0  0  0  0  0  0  0  0  0  0  0  0
   -0.2635    3.1567    0.0000 F   0  0  0  0  0  0  0  0  0  0  0  0
  1  2  1  0  0  0  0
  2  3  1  0  0  0  0
  3  4  1  0  0  0  0
  4  5  2  0  0  0  0
  4  6  1  0  0  0  0
  6  7  1  0  0  0  0
  7  8  1  0  0  0  0
  8  9  1  0  0  0  0
  9 10  1  0  0  0  0
 10 11  1  0  0  0  0
 11  6  1  0  0  0  0
  9 12  1  0  0  0  0
 12 13  1  0  0  0  0
 13 14  2  0  0  0  0
 14 15  1  0  0  0  0
 15 16  2  0  0  0  0
 16 17  1  0  0  0  0
 17 18  2  0  0  0  0
 18 13  1  0  0  0  0
 12 19  1  0  0  0  0
 19 20  2  0  0  0  0
 20 21  1  0  0  0  0
 21 22  1  0  0  0  0
 21 23  2  0  0  0  0
 23 24  1  0  0  0  0
 24 25  2  0  0  0  0
 25 19  1  0  0  0  0
 25 26  1  0  0  0  0
M  END
>  <Work Package>
E

>  <Target ID>
P4_E_008

>  <Smiles>
CCOC(=O)N1CCN(CC1)C(c2ccccn2)c3cc(Cl)ccc3F

>  <Status >
Ongoing

>  <Target Proposed by>
University of Washington Tacoma

>  <Synthesis by>
University of Washington (Laura Murphy)

>  <logD>
2.556

$$$$
Chemistry 71
  StarDrop          2D                              

 26 28  0  0  0  0  0  0  0  0999 V2000
    3.8916   -4.9570    0.0000 C   0  0  0  0  0  0  0  0  0  0  0  0
    3.8933   -3.7570    0.0000 C   0  0  0  0  0  0  0  0  0  0  0  0
    2.5951   -3.0039    0.0000 O   0  0  0  0  0  0  0  0  0  0  0  0
    2.5973   -1.5031    0.0000 C   0  0  0  0  0  0  0  0  0  0  0  0
    3.6375   -0.9049    0.0000 O   0  0  0  0  0  0  0  0  0  0  0  0
    1.2990   -0.7500    0.0000 N   0  0  0  0  0  0  0  0  0  0  0  0
    1.2990    0.7500    0.0000 C   0  0  0  0  0  0  0  0  0  0  0  0
    0.0000    1.5000    0.0000 C   0  0  0  0  0  0  0  0  0  0  0  0
   -1.2990    0.7500    0.0000 N   0  0  0  0  0  0  0  0  0  0  0  0
   -1.2990   -0.7500    0.0000 C   0  0  0  0  0  0  0  0  0  0  0  0
    0.0000   -1.5000    0.0000 C   0  0  0  0  0  0  0  0  0  0  0  0
   -2.5998    1.4986    0.0000 C   0  0  0  0  0  0  0  0  0  0  0  0
   -3.8983    0.7460    0.0000 C   0  0  0  0  0  0  0  0  0  0  0  0
   -3.8989   -0.7540    0.0000 C   0  0  0  0  0  0  0  0  0  0  0  0
   -5.1982   -1.5035    0.0000 C   0  0  0  0  0  0  0  0  0  0  0  0
   -6.4970   -0.7530    0.0000 C   0  0  0  0  0  0  0  0  0  0  0  0
   -6.4964    0.7470    0.0000 C   0  0  0  0  0  0  0  0  0  0  0  0
   -5.1971    1.4965    0.0000 N   0  0  0  0  0  0  0  0  0  0  0  0
   -2.6013    2.9994    0.0000 C   0  0  0  0  0  0  0  0  0  0  0  0
   -3.9027    3.7455    0.0000 C   0  0  0  0  0  0  0  0  0  0  0  0
   -3.9073    5.2455    0.0000 C   0  0  0  0  0  0  0  0  0  0  0  0
   -2.6105    5.9995    0.0000 C   0  0  0  0  0  0  0  0  0  0  0  0
   -2.6142    7.1995    0.0000 F   0  0  0  0  0  0  0  0  0  0  0  0
   -1.3092    5.2535    0.0000 C   0  0  0  0  0  0  0  0  0  0  0  0
   -1.3046    3.7535    0.0000 C   0  0  0  0  0  0  0  0  0  0  0  0
   -0.2635    3.1567    0.0000 Cl  0  0  0  0  0  0  0  0  0  0  0  0
  1  2  1  0  0  0  0
  2  3  1  0  0  0  0
  3  4  1  0  0  0  0
  4  5  2  0  0  0  0
  4  6  1  0  0  0  0
  6  7  1  0  0  0  0
  7  8  1  0  0  0  0
  8  9  1  0  0  0  0
  9 10  1  0  0  0  0
 10 11  1  0  0  0  0
 11  6  1  0  0  0  0
  9 12  1  0  0  0  0
 12 13  1  0  0  0  0
 13 14  2  0  0  0  0
 14 15  1  0  0  0  0
 15 16  2  0  0  0  0
 16 17  1  0  0  0  0
 17 18  2  0  0  0  0
 18 13  1  0  0  0  0
 12 19  1  0  0  0  0
 19 20  2  0  0  0  0
 20 21  1  0  0  0  0
 21 22  2  0  0  0  0
 22 23  1  0  0  0  0
 22 24  1  0  0  0  0
 24 25  2  0  0  0  0
 25 19  1  0  0  0  0
 25 26  1  0  0  0  0
M  END
>  <Work Package>
E

>  <Target ID>
P4_E_009

>  <Smiles>
CCOC(=O)N1CCN(CC1)C(c2ccccn2)c3ccc(F)cc3Cl

>  <Status >
Ongoing

>  <Target Proposed by>
University of Washington Tacoma

>  <Synthesis by>
University of Washington (Laura Murphy)

>  <logD>
2.552

$$$$
Chemistry 72
  StarDrop          2D                              

 26 28  0  0  0  0  0  0  0  0999 V2000
    3.8916   -4.9570    0.0000 C   0  0  0  0  0  0  0  0  0  0  0  0
    3.8933   -3.7570    0.0000 C   0  0  0  0  0  0  0  0  0  0  0  0
    2.5951   -3.0039    0.0000 O   0  0  0  0  0  0  0  0  0  0  0  0
    2.5973   -1.5031    0.0000 C   0  0  0  0  0  0  0  0  0  0  0  0
    3.6375   -0.9049    0.0000 O   0  0  0  0  0  0  0  0  0  0  0  0
    1.2990   -0.7500    0.0000 N   0  0  0  0  0  0  0  0  0  0  0  0
    1.2990    0.7500    0.0000 C   0  0  0  0  0  0  0  0  0  0  0  0
    0.0000    1.5000    0.0000 C   0  0  0  0  0  0  0  0  0  0  0  0
   -1.2990    0.7500    0.0000 N   0  0  0  0  0  0  0  0  0  0  0  0
   -1.2990   -0.7500    0.0000 C   0  0  0  0  0  0  0  0  0  0  0  0
    0.0000   -1.5000    0.0000 C   0  0  0  0  0  0  0  0  0  0  0  0
   -2.5998    1.4986    0.0000 C   0  0  0  0  0  0  0  0  0  0  0  0
   -3.8983    0.7460    0.0000 C   0  0  0  0  0  0  0  0  0  0  0  0
   -3.8989   -0.7540    0.0000 C   0  0  0  0  0  0  0  0  0  0  0  0
   -5.1982   -1.5035    0.0000 C   0  0  0  0  0  0  0  0  0  0  0  0
   -6.4970   -0.7530    0.0000 C   0  0  0  0  0  0  0  0  0  0  0  0
   -7.5364   -1.3527    0.0000 F   0  0  0  0  0  0  0  0  0  0  0  0
   -6.4964    0.7470    0.0000 C   0  0  0  0  0  0  0  0  0  0  0  0
   -7.5354    1.3473    0.0000 Cl  0  0  0  0  0  0  0  0  0  0  0  0
   -5.1971    1.4965    0.0000 C   0  0  0  0  0  0  0  0  0  0  0  0
   -2.6013    2.9994    0.0000 C   0  0  0  0  0  0  0  0  0  0  0  0
   -1.3046    3.7535    0.0000 C   0  0  0  0  0  0  0  0  0  0  0  0
   -1.3092    5.2535    0.0000 C   0  0  0  0  0  0  0  0  0  0  0  0
   -2.6105    5.9995    0.0000 C   0  0  0  0  0  0  0  0  0  0  0  0
   -3.9073    5.2455    0.0000 C   0  0  0  0  0  0  0  0  0  0  0  0
   -3.9027    3.7455    0.0000 N   0  0  0  0  0  0  0  0  0  0  0  0
  1  2  1  0  0  0  0
  2  3  1  0  0  0  0
  3  4  1  0  0  0  0
  4  5  2  0  0  0  0
  4  6  1  0  0  0  0
  6  7  1  0  0  0  0
  7  8  1  0  0  0  0
  8  9  1  0  0  0  0
  9 10  1  0  0  0  0
 10 11  1  0  0  0  0
 11  6  1  0  0  0  0
  9 12  1  0  0  0  0
 12 13  1  0  0  0  0
 13 14  2  0  0  0  0
 14 15  1  0  0  0  0
 15 16  2  0  0  0  0
 16 17  1  0  0  0  0
 16 18  1  0  0  0  0
 18 19  1  0  0  0  0
 18 20  2  0  0  0  0
 20 13  1  0  0  0  0
 12 21  1  0  0  0  0
 21 22  2  0  0  0  0
 22 23  1  0  0  0  0
 23 24  2  0  0  0  0
 24 25  1  0  0  0  0
 25 26  2  0  0  0  0
 26 21  1  0  0  0  0
M  END
>  <Work Package>
E

>  <Target ID>
P4_E_010

>  <Smiles>
CCOC(=O)N1CCN(CC1)C(c2ccc(F)c(Cl)c2)c3ccccn3

>  <Status >
Ongoing

>  <Target Proposed by>
University of Washington Tacoma

>  <Synthesis by>
University of Washington (Laura Murphy)

>  <logD>
2.553

$$$$
Chemistry 73
  StarDrop          2D                              

 26 28  0  0  0  0  0  0  0  0999 V2000
    3.8916   -4.9570    0.0000 C   0  0  0  0  0  0  0  0  0  0  0  0
    3.8933   -3.7570    0.0000 C   0  0  0  0  0  0  0  0  0  0  0  0
    2.5951   -3.0039    0.0000 O   0  0  0  0  0  0  0  0  0  0  0  0
    2.5973   -1.5031    0.0000 C   0  0  0  0  0  0  0  0  0  0  0  0
    3.6375   -0.9049    0.0000 O   0  0  0  0  0  0  0  0  0  0  0  0
    1.2990   -0.7500    0.0000 N   0  0  0  0  0  0  0  0  0  0  0  0
    1.2990    0.7500    0.0000 C   0  0  0  0  0  0  0  0  0  0  0  0
    0.0000    1.5000    0.0000 C   0  0  0  0  0  0  0  0  0  0  0  0
   -1.2990    0.7500    0.0000 N   0  0  0  0  0  0  0  0  0  0  0  0
   -1.2990   -0.7500    0.0000 C   0  0  0  0  0  0  0  0  0  0  0  0
    0.0000   -1.5000    0.0000 C   0  0  0  0  0  0  0  0  0  0  0  0
   -2.5998    1.4986    0.0000 C   0  0  0  0  0  0  0  0  0  0  0  0
   -3.8983    0.7460    0.0000 C   0  0  0  0  0  0  0  0  0  0  0  0
   -3.8989   -0.7540    0.0000 C   0  0  0  0  0  0  0  0  0  0  0  0
   -5.1982   -1.5035    0.0000 C   0  0  0  0  0  0  0  0  0  0  0  0
   -5.1986   -2.7035    0.0000 F   0  0  0  0  0  0  0  0  0  0  0  0
   -6.4970   -0.7530    0.0000 C   0  0  0  0  0  0  0  0  0  0  0  0
   -6.4964    0.7470    0.0000 C   0  0  0  0  0  0  0  0  0  0  0  0
   -7.5354    1.3473    0.0000 Cl  0  0  0  0  0  0  0  0  0  0  0  0
   -5.1971    1.4965    0.0000 C   0  0  0  0  0  0  0  0  0  0  0  0
   -2.6013    2.9994    0.0000 C   0  0  0  0  0  0  0  0  0  0  0  0
   -1.3046    3.7535    0.0000 C   0  0  0  0  0  0  0  0  0  0  0  0
   -1.3092    5.2535    0.0000 C   0  0  0  0  0  0  0  0  0  0  0  0
   -2.6105    5.9995    0.0000 C   0  0  0  0  0  0  0  0  0  0  0  0
   -3.9073    5.2455    0.0000 C   0  0  0  0  0  0  0  0  0  0  0  0
   -3.9027    3.7455    0.0000 N   0  0  0  0  0  0  0  0  0  0  0  0
  1  2  1  0  0  0  0
  2  3  1  0  0  0  0
  3  4  1  0  0  0  0
  4  5  2  0  0  0  0
  4  6  1  0  0  0  0
  6  7  1  0  0  0  0
  7  8  1  0  0  0  0
  8  9  1  0  0  0  0
  9 10  1  0  0  0  0
 10 11  1  0  0  0  0
 11  6  1  0  0  0  0
  9 12  1  0  0  0  0
 12 13  1  0  0  0  0
 13 14  2  0  0  0  0
 14 15  1  0  0  0  0
 15 16  1  0  0  0  0
 15 17  2  0  0  0  0
 17 18  1  0  0  0  0
 18 19  1  0  0  0  0
 18 20  2  0  0  0  0
 20 13  1  0  0  0  0
 12 21  1  0  0  0  0
 21 22  2  0  0  0  0
 22 23  1  0  0  0  0
 23 24  2  0  0  0  0
 24 25  1  0  0  0  0
 25 26  2  0  0  0  0
 26 21  1  0  0  0  0
M  END
>  <Work Package>
E

>  <Target ID>
P4_E_011

>  <Smiles>
CCOC(=O)N1CCN(CC1)C(c2cc(F)cc(Cl)c2)c3ccccn3

>  <Status >
Ongoing

>  <Target Proposed by>
University of Washington Tacoma

>  <Synthesis by>
University of Washington (Laura Murphy)

>  <logD>
2.55

$$$$
Chemistry 74
  StarDrop          2D                              

 30 33  0  0  0  0  0  0  0  0999 V2000
    9.0911    4.9501    0.0000 C   0  0  0  0  0  0  0  0  0  0  0  0
    9.0924    3.7501    0.0000 C   0  0  0  0  0  0  0  0  0  0  0  0
    7.7939    2.9975    0.0000 O   0  0  0  0  0  0  0  0  0  0  0  0
    7.7955    1.4967    0.0000 C   0  0  0  0  0  0  0  0  0  0  0  0
    8.8355    0.8981    0.0000 O   0  0  0  0  0  0  0  0  0  0  0  0
    6.4970    0.7441    0.0000 N   0  0  0  0  0  0  0  0  0  0  0  0
    6.4964   -0.7559    0.0000 C   0  0  0  0  0  0  0  0  0  0  0  0
    5.1971   -1.5054    0.0000 C   0  0  0  0  0  0  0  0  0  0  0  0
    3.8982   -0.7550    0.0000 N   0  0  0  0  0  0  0  0  0  0  0  0
    3.8989    0.7451    0.0000 C   0  0  0  0  0  0  0  0  0  0  0  0
    5.1982    1.4946    0.0000 C   0  0  0  0  0  0  0  0  0  0  0  0
    2.5973   -1.5031    0.0000 C   0  0  0  0  0  0  0  0  0  0  0  0
    1.2990   -0.7500    0.0000 C   0  0  0  0  0  0  0  0  0  0  0  0
    1.2990    0.7500    0.0000 C   0  0  0  0  0  0  0  0  0  0  0  0
    0.0000    1.5000    0.0000 N   0  0  0  0  0  0  0  0  0  0  0  0
   -1.2990    0.7500    0.0000 C   0  0  0  0  0  0  0  0  0  0  0  0
   -2.5981    1.5000    0.0000 C   0  0  0  0  0  0  0  0  0  0  0  0
   -3.8971    0.7500    0.0000 C   0  0  0  0  0  0  0  0  0  0  0  0
   -3.8971   -0.7500    0.0000 C   0  0  0  0  0  0  0  0  0  0  0  0
   -2.5981   -1.5000    0.0000 C   0  0  0  0  0  0  0  0  0  0  0  0
   -1.2990   -0.7500    0.0000 C   0  0  0  0  0  0  0  0  0  0  0  0
    0.0000   -1.5000    0.0000 C   0  0  0  0  0  0  0  0  0  0  0  0
    2.5951   -3.0039    0.0000 C   0  0  0  0  0  0  0  0  0  0  0  0
    1.2935   -3.7495    0.0000 C   0  0  0  0  0  0  0  0  0  0  0  0
    1.2883   -5.2495    0.0000 C   0  0  0  0  0  0  0  0  0  0  0  0
    2.5847   -6.0040    0.0000 C   0  0  0  0  0  0  0  0  0  0  0  0
    2.5806   -7.2040    0.0000 Cl  0  0  0  0  0  0  0  0  0  0  0  0
    3.8864   -5.2585    0.0000 C   0  0  0  0  0  0  0  0  0  0  0  0
    3.8915   -3.7585    0.0000 C   0  0  0  0  0  0  0  0  0  0  0  0
    4.9329   -3.1621    0.0000 F   0  0  0  0  0  0  0  0  0  0  0  0
  1  2  1  0  0  0  0
  2  3  1  0  0  0  0
  3  4  1  0  0  0  0
  4  5  2  0  0  0  0
  4  6  1  0  0  0  0
  6  7  1  0  0  0  0
  7  8  1  0  0  0  0
  8  9  1  0  0  0  0
  9 10  1  0  0  0  0
 10 11  1  0  0  0  0
 11  6  1  0  0  0  0
  9 12  1  0  0  0  0
 12 13  1  0  0  0  0
 13 14  2  0  0  0  0
 14 15  1  0  0  0  0
 15 16  2  0  0  0  0
 16 17  1  0  0  0  0
 17 18  2  0  0  0  0
 18 19  1  0  0  0  0
 19 20  2  0  0  0  0
 20 21  1  0  0  0  0
 21 16  1  0  0  0  0
 21 22  2  0  0  0  0
 22 13  1  0  0  0  0
 12 23  1  0  0  0  0
 23 24  2  0  0  0  0
 24 25  1  0  0  0  0
 25 26  2  0  0  0  0
 26 27  1  0  0  0  0
 26 28  1  0  0  0  0
 28 29  2  0  0  0  0
 29 23  1  0  0  0  0
 29 30  1  0  0  0  0
M  END
>  <Work Package>
E

>  <Target ID>
P4_E_012

>  <Smiles>
CCOC(=O)N1CCN(CC1)C(c2cnc3ccccc3c2)c4ccc(Cl)cc4F

>  <Status >
Ongoing

>  <Target Proposed by>
University of Washington Tacoma

>  <Synthesis by>
University of Washington (Laura Murphy)

>  <logD>
3.675

$$$$
Chemistry 75
  StarDrop          2D                              

 25 27  0  0  0  0  0  0  0  0999 V2000
    3.8916   -4.9570    0.0000 C   0  0  0  0  0  0  0  0  0  0  0  0
    3.8933   -3.7570    0.0000 C   0  0  0  0  0  0  0  0  0  0  0  0
    2.5951   -3.0039    0.0000 O   0  0  0  0  0  0  0  0  0  0  0  0
    2.5973   -1.5031    0.0000 C   0  0  0  0  0  0  0  0  0  0  0  0
    3.6375   -0.9049    0.0000 O   0  0  0  0  0  0  0  0  0  0  0  0
    1.2990   -0.7500    0.0000 N   0  0  0  0  0  0  0  0  0  0  0  0
    1.2990    0.7500    0.0000 C   0  0  0  0  0  0  0  0  0  0  0  0
    0.0000    1.5000    0.0000 C   0  0  0  0  0  0  0  0  0  0  0  0
   -1.2990    0.7500    0.0000 N   0  0  0  0  0  0  0  0  0  0  0  0
   -1.2990   -0.7500    0.0000 C   0  0  0  0  0  0  0  0  0  0  0  0
    0.0000   -1.5000    0.0000 C   0  0  0  0  0  0  0  0  0  0  0  0
   -2.5998    1.4986    0.0000 C   0  0  0  0  0  0  0  0  0  0  0  0
   -3.8983    0.7460    0.0000 C   0  0  0  0  0  0  0  0  0  0  0  0
   -4.0367   -0.7348    0.0000 C   0  0  0  0  0  0  0  0  0  0  0  0
   -5.5040   -1.0461    0.0000 O   0  0  0  0  0  0  0  0  0  0  0  0
   -6.2535    0.2533    0.0000 N   0  0  0  0  0  0  0  0  0  0  0  0
   -5.2494    1.3676    0.0000 C   0  0  0  0  0  0  0  0  0  0  0  0
   -2.6013    2.9994    0.0000 C   0  0  0  0  0  0  0  0  0  0  0  0
   -3.9027    3.7455    0.0000 C   0  0  0  0  0  0  0  0  0  0  0  0
   -3.9073    5.2455    0.0000 C   0  0  0  0  0  0  0  0  0  0  0  0
   -2.6105    5.9995    0.0000 C   0  0  0  0  0  0  0  0  0  0  0  0
   -2.6142    7.1995    0.0000 Cl  0  0  0  0  0  0  0  0  0  0  0  0
   -1.3092    5.2535    0.0000 C   0  0  0  0  0  0  0  0  0  0  0  0
   -1.3046    3.7535    0.0000 C   0  0  0  0  0  0  0  0  0  0  0  0
   -0.2635    3.1567    0.0000 F   0  0  0  0  0  0  0  0  0  0  0  0
  1  2  1  0  0  0  0
  2  3  1  0  0  0  0
  3  4  1  0  0  0  0
  4  5  2  0  0  0  0
  4  6  1  0  0  0  0
  6  7  1  0  0  0  0
  7  8  1  0  0  0  0
  8  9  1  0  0  0  0
  9 10  1  0  0  0  0
 10 11  1  0  0  0  0
 11  6  1  0  0  0  0
  9 12  1  0  0  0  0
 12 13  1  0  0  0  0
 13 14  2  0  0  0  0
 14 15  1  0  0  0  0
 15 16  1  0  0  0  0
 16 17  2  0  0  0  0
 17 13  1  0  0  0  0
 12 18  1  0  0  0  0
 18 19  2  0  0  0  0
 19 20  1  0  0  0  0
 20 21  2  0  0  0  0
 21 22  1  0  0  0  0
 21 23  1  0  0  0  0
 23 24  2  0  0  0  0
 24 18  1  0  0  0  0
 24 25  1  0  0  0  0
M  END
>  <Work Package>
E

>  <Target ID>
P4_E_013

>  <Smiles>
CCOC(=O)N1CCN(CC1)C(c2conc2)c3ccc(Cl)cc3F

>  <Status >
Ongoing

>  <Target Proposed by>
University of Washington Tacoma

>  <Synthesis by>
University of Washington (Laura Murphy)

>  <logD>
2.344

$$$$
Chemistry 76
  StarDrop          2D                              

 33 36  0  0  0  0  0  0  0  0999 V2000
    2.3383   -1.3500    0.0000 F   0  0  0  0  0  0  0  0  0  0  0  0
    1.2990   -0.7500    0.0000 C   0  0  0  0  0  0  0  0  0  0  0  0
    1.2990    0.7500    0.0000 C   0  0  0  0  0  0  0  0  0  0  0  0
    0.0000    1.5000    0.0000 C   0  0  0  0  0  0  0  0  0  0  0  0
    0.0000    2.7000    0.0000 Cl  0  0  0  0  0  0  0  0  0  0  0  0
   -1.2990    0.7500    0.0000 C   0  0  0  0  0  0  0  0  0  0  0  0
   -1.2990   -0.7500    0.0000 C   0  0  0  0  0  0  0  0  0  0  0  0
    0.0000   -1.5000    0.0000 C   0  0  0  0  0  0  0  0  0  0  0  0
   -0.0031   -3.0008    0.0000 C   0  0  0  0  0  0  0  0  0  0  0  0
   -1.3039   -3.7494    0.0000 C   0  0  0  0  0  0  0  0  0  0  0  0
   -2.3421   -3.1476    0.0000 O   0  0  0  0  0  0  0  0  0  0  0  0
   -1.3070   -5.2502    0.0000 N   0  0  0  0  0  0  0  0  0  0  0  0
   -2.6060   -6.0003    0.0000 C   0  0  0  0  0  0  0  0  0  0  0  0
   -2.6060   -7.5003    0.0000 C   0  0  0  0  0  0  0  0  0  0  0  0
   -1.3070   -8.2503    0.0000 N   0  0  0  0  0  0  0  0  0  0  0  0
   -0.0080   -7.5003    0.0000 C   0  0  0  0  0  0  0  0  0  0  0  0
   -0.0079   -6.0003    0.0000 C   0  0  0  0  0  0  0  0  0  0  0  0
   -1.3071   -9.7511    0.0000 C   0  0  0  0  0  0  0  0  0  0  0  0
   -2.6049  -10.5032    0.0000 C   0  0  0  0  0  0  0  0  0  0  0  0
   -2.6026  -12.0032    0.0000 C   0  0  0  0  0  0  0  0  0  0  0  0
   -1.3024  -12.7512    0.0000 C   0  0  0  0  0  0  0  0  0  0  0  0
   -0.0045  -11.9991    0.0000 C   0  0  0  0  0  0  0  0  0  0  0  0
   -0.0068  -10.4991    0.0000 C   0  0  0  0  0  0  0  0  0  0  0  0
   -1.3000  -14.2520    0.0000 C   0  0  0  0  0  0  0  0  0  0  0  0
   -2.3379  -14.8543    0.0000 F   0  0  0  0  0  0  0  0  0  0  0  0
   -0.2596  -14.8500    0.0000 F   0  0  0  0  0  0  0  0  0  0  0  0
   -1.2976  -15.4520    0.0000 F   0  0  0  0  0  0  0  0  0  0  0  0
    1.2953   -3.7535    0.0000 C   0  0  0  0  0  0  0  0  0  0  0  0
    1.2948   -5.2535    0.0000 C   0  0  0  0  0  0  0  0  0  0  0  0
    2.5936   -6.0040    0.0000 C   0  0  0  0  0  0  0  0  0  0  0  0
    3.8929   -5.2545    0.0000 C   0  0  0  0  0  0  0  0  0  0  0  0
    3.8935   -3.7545    0.0000 N   0  0  0  0  0  0  0  0  0  0  0  0
    2.5947   -3.0040    0.0000 C   0  0  0  0  0  0  0  0  0  0  0  0
  1  2  1  0  0  0  0
  2  3  2  0  0  0  0
  3  4  1  0  0  0  0
  4  5  1  0  0  0  0
  4  6  2  0  0  0  0
  6  7  1  0  0  0  0
  7  8  2  0  0  0  0
  8  2  1  0  0  0  0
  8  9  1  0  0  0  0
  9 10  1  0  0  0  0
 10 11  2  0  0  0  0
 10 12  1  0  0  0  0
 12 13  1  0  0  0  0
 13 14  1  0  0  0  0
 14 15  1  0  0  0  0
 15 16  1  0  0  0  0
 16 17  1  0  0  0  0
 17 12  1  0  0  0  0
 15 18  1  0  0  0  0
 18 19  2  0  0  0  0
 19 20  1  0  0  0  0
 20 21  2  0  0  0  0
 21 22  1  0  0  0  0
 22 23  2  0  0  0  0
 23 18  1  0  0  0  0
 21 24  1  0  0  0  0
 24 25  1  0  0  0  0
 24 26  1  0  0  0  0
 24 27  1  0  0  0  0
  9 28  1  0  0  0  0
 28 29  2  0  0  0  0
 29 30  1  0  0  0  0
 30 31  2  0  0  0  0
 31 32  1  0  0  0  0
 32 33  2  0  0  0  0
 33 28  1  0  0  0  0
M  END
>  <Work Package>
F

>  <Target ID>
P4_F_DM16

>  <Smiles>
Fc1cc(Cl)ccc1C(C(=O)N2CCN(CC2)c3ccc(cc3)C(F)(F)F)c4cccnc4

>  <Status >
Completed - in test

>  <Target Proposed by>
Mycetos Github

>  <Synthesis by>
UCL

>  <logD>
3.372

$$$$
